REMARK  6 active torsions:
REMARK  status: ('A' for Active; 'I' for Inactive)
REMARK    1  A    between atoms: C_2  and  O_3 
REMARK    2  A    between atoms: C_2  and  C_4 
REMARK    3  A    between atoms: C_6  and  N_7 
REMARK       I    between atoms: N_7  and  C_8 
REMARK    4  A    between atoms: C_8  and  C_9 
REMARK    5  A    between atoms: C_12  and  C_13 
REMARK    6  A    between atoms: C_18  and  C_19 
ROOT
HETATM    1  C   UNL     1       2.178   4.155   1.528  1.00  0.00     0.096 C 
HETATM    2  C   UNL     1       3.294   3.556   2.083  1.00  0.00     0.138 C 
HETATM    3  N   UNL     1       2.816   2.660   3.013  1.00  0.00    -0.240 N 
HETATM    4  C   UNL     1       3.653   1.824   3.857  1.00  0.00     0.221 C 
HETATM    5  C   UNL     1       5.098   1.789   3.324  1.00  0.00     0.066 C 
HETATM    6  C   UNL     1       5.545   3.195   2.909  1.00  0.00     0.118 C 
HETATM    7  N   UNL     1       4.632   3.711   1.881  1.00  0.00    -0.365 N 
HETATM    8  N   UNL     1       1.497   2.772   3.229  1.00  0.00    -0.181 NA
HETATM    9  C   UNL     1       1.105   3.652   2.303  1.00  0.00     0.160 C 
HETATM   10  H   UNL     1       4.958   4.613   1.524  1.00  0.00     0.161 HD
ENDROOT
BRANCH   1  11
HETATM   11  C   UNL     1       2.083   5.112   0.437  1.00  0.00     0.261 C 
HETATM   12  N   UNL     1       3.172   5.082  -0.414  1.00  0.00    -0.323 N 
HETATM   13  H   UNL     1       3.845   4.346  -0.230  1.00  0.00     0.169 HD
HETATM   14  O   UNL     1       1.091   5.821   0.318  1.00  0.00    -0.267 OA
BRANCH  12  15
HETATM   15  C   UNL     1       3.403   5.876  -1.554  1.00  0.00     0.035 A 
HETATM   16  C   UNL     1       2.570   6.923  -1.958  1.00  0.00     0.039 A 
HETATM   17  C   UNL     1       2.854   7.671  -3.114  1.00  0.00    -0.028 A 
HETATM   18  C   UNL     1       3.989   7.347  -3.870  1.00  0.00     0.010 A 
HETATM   19  C   UNL     1       4.832   6.314  -3.468  1.00  0.00     0.003 A 
HETATM   20  C   UNL     1       4.542   5.585  -2.314  1.00  0.00     0.029 A 
BRANCH  17  21
HETATM   21  C   UNL     1       1.917   8.782  -3.540  1.00  0.00     0.147 C 
HETATM   22  C   UNL     1       0.968   8.337  -4.643  1.00  0.00     0.044 C 
BRANCH  21  23
HETATM   23  O   UNL     1       2.660   9.911  -3.998  1.00  0.00    -0.391 OA
HETATM   24  H   UNL     1       3.400  10.028  -3.378  1.00  0.00     0.210 HD
ENDBRANCH  21  23
ENDBRANCH  17  21
ENDBRANCH  12  15
ENDBRANCH   1  11
BRANCH   4  25
HETATM   25  C   UNL     1       3.117   0.412   3.957  1.00  0.00     0.409 C 
HETATM   26  F   UNL     1       1.924   0.328   4.579  1.00  0.00    -0.169 F 
HETATM   27  F   UNL     1       3.010  -0.185   2.748  1.00  0.00    -0.169 F 
HETATM   28  F   UNL     1       3.977  -0.348   4.689  1.00  0.00    -0.169 F 
ENDBRANCH   4  25
BRANCH   6  29
HETATM   29  C   UNL     1       6.963   3.205   2.374  1.00  0.00    -0.035 A 
HETATM   30  C   UNL     1       7.299   2.545   1.180  1.00  0.00     0.009 A 
HETATM   31  C   UNL     1       8.612   2.553   0.706  1.00  0.00     0.001 A 
HETATM   32  C   UNL     1       9.605   3.223   1.417  1.00  0.00     0.000 A 
HETATM   33  C   UNL     1       9.287   3.887   2.600  1.00  0.00     0.001 A 
HETATM   34  C   UNL     1       7.974   3.879   3.076  1.00  0.00     0.009 A 
ENDBRANCH   6  29
TORSDOF 6
