REMARK  8 active torsions:
REMARK  status: ('A' for Active; 'I' for Inactive)
REMARK    1  A    between atoms: C_3  and  N_4 
REMARK       I    between atoms: N_4  and  C_5 
REMARK    2  A    between atoms: C_5  and  C_6 
REMARK    3  A    between atoms: C_7  and  C_8 
REMARK    4  A    between atoms: C_11  and  C_12 
REMARK    5  A    between atoms: C_21  and  C_22 
REMARK    6  A    between atoms: C_22  and  C_23 
REMARK    7  A    between atoms: C_23  and  C_24 
REMARK    8  A    between atoms: C_24  and  O_25 
ROOT
HETATM    1  C   UNL     1       4.649   3.686  -0.206  1.00  0.00     0.062 A 
HETATM    2  C   UNL     1       5.289   5.020  -0.573  1.00  0.00     0.202 A 
HETATM    3  N   UNL     1       6.674   5.100  -0.088  1.00  0.00    -0.083 N 
HETATM    4  C   UNL     1       7.276   4.129   0.667  1.00  0.00     0.726 A 
HETATM    5  N   UNL     1       6.597   3.007   0.968  1.00  0.00    -0.192 N 
HETATM    6  N   UNL     1       7.463   6.192  -0.196  1.00  0.00    -0.140 NA
HETATM    7  C   UNL     1       8.571   5.763   0.427  1.00  0.00     0.166 A 
HETATM    8  N   UNL     1       8.485   4.510   0.986  1.00  0.00    -0.046 NA
HETATM    9  C   UNL     1       5.306   2.752   0.524  1.00  0.00     0.037 A 
HETATM   10  C   UNL     1       4.729   1.414   0.915  1.00  0.00     0.070 C 
HETATM   11  H   UNL     1       7.073   2.273   1.485  1.00  0.00     0.184 HD
ENDROOT
BRANCH   1  12
HETATM   12  C   UNL     1       3.318   3.382  -0.789  1.00  0.00     0.256 C 
HETATM   13  N   UNL     1       2.330   4.240  -0.354  1.00  0.00    -0.323 N 
HETATM   14  H   UNL     1       2.582   4.904   0.362  1.00  0.00     0.169 HD
HETATM   15  O   UNL     1       3.203   2.424  -1.542  1.00  0.00    -0.267 OA
BRANCH  13  16
HETATM   16  C   UNL     1       0.973   4.259  -0.765  1.00  0.00     0.041 A 
HETATM   17  C   UNL     1       0.081   5.159  -0.139  1.00  0.00    -0.035 A 
HETATM   18  C   UNL     1       0.514   6.104   0.949  1.00  0.00     0.050 C 
HETATM   19  C   UNL     1      -1.265   5.194  -0.549  1.00  0.00     0.009 A 
HETATM   20  C   UNL     1      -1.730   4.353  -1.557  1.00  0.00     0.001 A 
HETATM   21  C   UNL     1      -0.853   3.471  -2.174  1.00  0.00     0.002 A 
HETATM   22  C   UNL     1       0.487   3.428  -1.782  1.00  0.00     0.030 A 
ENDBRANCH  13  16
ENDBRANCH   1  12
BRANCH   2  23
HETATM   23  C   UNL     1       5.210   5.348  -2.057  1.00  0.00    -0.028 A 
HETATM   24  C   UNL     1       4.550   6.512  -2.480  1.00  0.00     0.010 A 
HETATM   25  C   UNL     1       4.415   6.803  -3.839  1.00  0.00     0.008 A 
HETATM   26  C   UNL     1       4.937   5.941  -4.812  1.00  0.00    -0.055 A 
HETATM   27  C   UNL     1       5.612   4.787  -4.390  1.00  0.00     0.008 A 
HETATM   28  C   UNL     1       5.751   4.494  -3.030  1.00  0.00     0.010 A 
BRANCH  26  29
HETATM   29  C   UNL     1       4.743   6.261  -6.283  1.00  0.00     0.010 C 
HETATM   30  C   UNL     1       6.077   6.401  -7.019  1.00  0.00     0.015 C 
HETATM   31  C   UNL     1       3.849   5.221  -6.963  1.00  0.00     0.015 C 
ENDBRANCH  26  29
ENDBRANCH   2  23
BRANCH   7  32
HETATM   32  C   UNL     1       9.810   6.577   0.510  1.00  0.00     0.085 C 
BRANCH  32  33
HETATM   33  C   UNL     1      10.897   6.113  -0.457  1.00  0.00     0.034 C 
BRANCH  33  34
HETATM   34  C   UNL     1      10.519   6.312  -1.920  1.00  0.00     0.164 C 
BRANCH  34  35
HETATM   35  O   UNL     1      11.622   5.956  -2.749  1.00  0.00    -0.401 OA
HETATM   36  H   UNL     1      12.353   6.561  -2.541  1.00  0.00     0.209 HD
ENDBRANCH  34  35
ENDBRANCH  33  34
ENDBRANCH  32  33
ENDBRANCH   7  32
TORSDOF 8
