REMARK  6 active torsions:
REMARK  status: ('A' for Active; 'I' for Inactive)
REMARK    1  A    between atoms: C_8  and  N_9 
REMARK       I    between atoms: N_9  and  C_10 
REMARK    2  A    between atoms: C_10  and  C_12 
REMARK    3  A    between atoms: C_16  and  C_17 
REMARK    4  A    between atoms: C_17  and  N_18 
REMARK       I    between atoms: N_18  and  C_19 
REMARK    5  A    between atoms: C_19  and  C_21 
REMARK    6  A    between atoms: C_25  and  C_31 
REMARK       I    between atoms: C_31  and  N_33 
ROOT
HETATM    1  C   UNL     1       9.482   4.968   1.591  1.00  0.00     0.032 A 
HETATM    2  C   UNL     1       8.670   6.100   1.727  1.00  0.00     0.017 A 
HETATM    3  C   UNL     1       9.248   7.371   1.747  1.00  0.00     0.002 A 
HETATM    4  C   UNL     1      10.633   7.516   1.639  1.00  0.00     0.009 A 
HETATM    5  C   UNL     1      11.459   6.392   1.503  1.00  0.00    -0.040 A 
HETATM    6  C   UNL     1      10.873   5.118   1.492  1.00  0.00     0.026 A 
ENDROOT
BRANCH   5   7
HETATM    7  C   UNL     1      12.955   6.544   1.419  1.00  0.00     0.161 C 
BRANCH   7   8
HETATM    8  N   UNL     1      13.559   6.440   2.725  1.00  0.00    -0.351 N 
HETATM    9  C   UNL     1      14.010   7.540   3.417  1.00  0.00     0.268 C 
HETATM   10  O   UNL     1      13.925   8.672   2.947  1.00  0.00    -0.266 OA
HETATM   11  H   UNL     1      13.525   5.544   3.184  1.00  0.00     0.163 HD
BRANCH   9  12
HETATM   12  C   UNL     1      14.598   7.254   4.720  1.00  0.00     0.103 A 
HETATM   13  C   UNL     1      14.848   6.034   5.333  1.00  0.00     0.049 A 
HETATM   14  C   UNL     1      15.494   6.261   6.576  1.00  0.00    -0.006 A 
HETATM   15  C   UNL     1      15.994   5.406   7.578  1.00  0.00     0.030 A 
HETATM   16  C   UNL     1      15.626   7.640   6.726  1.00  0.00     0.045 A 
HETATM   17  C   UNL     1      16.623   5.947   8.711  1.00  0.00     0.032 A 
HETATM   18  C   UNL     1      16.757   7.332   8.834  1.00  0.00     0.019 A 
HETATM   19  C   UNL     1      16.256   8.198   7.851  1.00  0.00     0.031 A 
HETATM   20  N   UNL     1      15.056   8.222   5.607  1.00  0.00    -0.346 N 
HETATM   21  C   UNL     1      14.961   9.652   5.379  1.00  0.00     0.156 C 
BRANCH  17  22
HETATM   22  C   UNL     1      17.155   4.995   9.727  1.00  0.00     0.249 C 
HETATM   23  O   UNL     1      17.264   3.797   9.491  1.00  0.00    -0.268 OA
HETATM   24  N   UNL     1      17.502   5.486  10.955  1.00  0.00    -0.366 N 
HETATM   25  H   UNL     1      17.253   6.406  11.282  1.00  0.00     0.159 HD
HETATM   26  H   UNL     1      17.782   4.800  11.645  1.00  0.00     0.159 HD
ENDBRANCH  17  22
ENDBRANCH   9  12
ENDBRANCH   7   8
ENDBRANCH   5   7
BRANCH   1  27
HETATM   27  C   UNL     1       8.927   3.584   1.591  1.00  0.00     0.256 C 
HETATM   28  N   UNL     1       7.691   3.444   0.986  1.00  0.00    -0.323 N 
HETATM   29  H   UNL     1       7.308   4.256   0.524  1.00  0.00     0.169 HD
HETATM   30  O   UNL     1       9.612   2.695   2.083  1.00  0.00    -0.267 OA
BRANCH  28  31
HETATM   31  C   UNL     1       6.936   2.256   0.854  1.00  0.00     0.035 A 
HETATM   32  C   UNL     1       7.319   1.028   1.391  1.00  0.00     0.030 A 
HETATM   33  C   UNL     1       6.521  -0.106   1.213  1.00  0.00     0.010 A 
HETATM   34  C   UNL     1       5.319  -0.026   0.503  1.00  0.00    -0.048 A 
HETATM   35  C   UNL     1       4.490  -1.263   0.273  1.00  0.00     0.069 C 
HETATM   36  C   UNL     1       4.924   1.201  -0.053  1.00  0.00    -0.022 A 
HETATM   37  C   UNL     1       3.060  -0.939  -0.176  1.00  0.00     0.277 C 
HETATM   38  N   UNL     1       3.071   0.042  -1.271  1.00  0.00     0.088 N 
HETATM   39  C   UNL     1       1.729   0.222  -1.821  1.00  0.00     0.310 C 
HETATM   40  C   UNL     1       3.605   1.328  -0.789  1.00  0.00     0.311 C 
HETATM   41  C   UNL     1       5.732   2.335   0.140  1.00  0.00     0.039 A 
ENDBRANCH  28  31
ENDBRANCH   1  27
TORSDOF 6
