REMARK  2 active torsions:
REMARK  status: ('A' for Active; 'I' for Inactive)
REMARK    1  A    between atoms: C_4  and  N_5 
REMARK       I    between atoms: N_5  and  C_6 
REMARK    2  A    between atoms: C_6  and  C_7 
ROOT
HETATM    1  N   UNL     1       4.964   2.445  -0.006  1.00  0.00    -0.319 N 
HETATM    2  C   UNL     1       4.163   3.564  -0.034  1.00  0.00     0.280 C 
HETATM    3  O   UNL     1       2.953   3.632   0.117  1.00  0.00    -0.265 OA
HETATM    4  H   UNL     1       5.973   2.589   0.042  1.00  0.00     0.169 HD
ENDROOT
BRANCH   2   5
HETATM    5  C   UNL     1       4.942   4.849  -0.229  1.00  0.00     0.195 C 
HETATM    6  N   UNL     1       6.078   4.963   0.411  1.00  0.00    -0.165 NA
HETATM    7  N   UNL     1       6.805   6.112   0.278  1.00  0.00    -0.277 N 
HETATM    8  C   UNL     1       6.222   7.300  -0.197  1.00  0.00     0.064 A 
HETATM    9  H   UNL     1       7.553   6.245   0.960  1.00  0.00     0.189 HD
HETATM   10  C   UNL     1       5.032   7.270  -0.923  1.00  0.00     0.045 A 
HETATM   11  C   UNL     1       6.880   8.527  -0.064  1.00  0.00     0.032 A 
HETATM   12  C   UNL     1       4.421   5.956  -1.108  1.00  0.00     0.220 C 
HETATM   13  C   UNL     1       4.468   8.424  -1.474  1.00  0.00     0.018 A 
HETATM   14  O   UNL     1       3.555   5.749  -1.943  1.00  0.00    -0.285 OA
HETATM   15  C   UNL     1       5.116   9.644  -1.300  1.00  0.00     0.001 A 
HETATM   16  C   UNL     1       6.323   9.695  -0.601  1.00  0.00     0.002 A 
ENDBRANCH   2   5
BRANCH   1  17
HETATM   17  C   UNL     1       4.564   1.090   0.071  1.00  0.00     0.065 A 
HETATM   18  C   UNL     1       3.228   0.687  -0.054  1.00  0.00     0.038 A 
HETATM   19  C   UNL     1       2.884  -0.667  -0.007  1.00  0.00    -0.059 A 
HETATM   20  C   UNL     1       1.448  -1.086  -0.125  1.00  0.00     0.048 C 
HETATM   21  C   UNL     1       3.889  -1.614   0.202  1.00  0.00     0.020 A 
HETATM   22  C   UNL     1       5.231  -1.218   0.328  1.00  0.00    -0.005 A 
HETATM   23  C   UNL     1       5.587   0.146   0.254  1.00  0.00     0.093 A 
HETATM   24  C   UNL     1       6.249  -2.160   0.530  1.00  0.00     0.015 A 
HETATM   25  N   UNL     1       6.876   0.551   0.366  1.00  0.00    -0.258 NA
HETATM   26  C   UNL     1       7.828  -0.388   0.562  1.00  0.00     0.117 A 
HETATM   27  C   UNL     1       7.568  -1.741   0.651  1.00  0.00     0.020 A 
ENDBRANCH   1  17
TORSDOF 2
