REMARK  8 active torsions:
REMARK  status: ('A' for Active; 'I' for Inactive)
REMARK    1  A    between atoms: O_2  and  C_3 
REMARK    2  A    between atoms: C_4  and  O_5 
REMARK    3  A    between atoms: O_5  and  C_6 
REMARK    4  A    between atoms: C_6  and  C_7 
REMARK       I    between atoms: C_7  and  N_8 
REMARK    5  A    between atoms: N_8  and  C_9 
REMARK    6  A    between atoms: C_9  and  N_10 
REMARK    7  A    between atoms: N_10  and  N_11 
REMARK       I    between atoms: N_11  and  C_12 
REMARK       I    between atoms: C_12  and  N_13 
REMARK    8  A    between atoms: N_13  and  C_14 
ROOT
HETATM    1  C   UNL     1       3.565   1.456  -3.044  1.00  0.00     0.189 C 
HETATM    2  S   UNL     1       3.343  -0.106  -2.508  1.00  0.00    -0.039 SA
ENDROOT
BRANCH   1   3
HETATM    3  N   UNL     1       4.760   2.147  -3.151  1.00  0.00    -0.301 N 
HETATM    4  C   UNL     1       6.060   1.706  -2.880  1.00  0.00     0.248 C 
HETATM    5  O   UNL     1       6.363   0.927  -1.983  1.00  0.00    -0.271 OA
HETATM    6  H   UNL     1       4.680   3.019  -3.645  1.00  0.00     0.171 HD
BRANCH   4   7
HETATM    7  C   UNL     1       7.090   2.377  -3.799  1.00  0.00     0.278 C 
BRANCH   7   8
HETATM    8  O   UNL     1       8.414   2.005  -3.459  1.00  0.00    -0.339 OA
BRANCH   8   9
HETATM    9  C   UNL     1       9.418   2.264  -4.351  1.00  0.00     0.102 A 
HETATM   10  C   UNL     1      10.678   1.679  -4.127  1.00  0.00     0.101 A 
HETATM   11  C   UNL     1      11.737   1.962  -5.004  1.00  0.00     0.039 A 
HETATM   12  C   UNL     1      11.560   2.800  -6.103  1.00  0.00     0.003 A 
HETATM   13  C   UNL     1      10.317   3.377  -6.329  1.00  0.00     0.003 A 
HETATM   14  C   UNL     1       9.257   3.118  -5.455  1.00  0.00     0.039 A 
BRANCH  10  15
HETATM   15  O   UNL     1      11.059   0.837  -3.113  1.00  0.00    -0.353 OA
HETATM   16  C   UNL     1      10.050   0.212  -2.332  1.00  0.00     0.210 C 
ENDBRANCH  10  15
ENDBRANCH   8   9
ENDBRANCH   7   8
ENDBRANCH   4   7
ENDBRANCH   1   3
BRANCH   1  17
HETATM   17  N   UNL     1       2.457   2.149  -3.486  1.00  0.00    -0.289 N 
HETATM   18  H   UNL     1       1.547   1.702  -3.363  1.00  0.00     0.183 HD
BRANCH  17  19
HETATM   19  N   UNL     1       2.464   3.534  -3.755  1.00  0.00    -0.153 NA
HETATM   20  C   UNL     1       1.283   4.193  -3.952  1.00  0.00     0.317 C 
HETATM   21  N   UNL     1       0.146   3.840  -3.308  1.00  0.00    -0.312 N 
HETATM   22  O   UNL     1       1.245   5.066  -4.822  1.00  0.00    -0.252 OA
HETATM   23  H   UNL     1      -0.668   4.224  -3.776  1.00  0.00     0.170 HD
HETATM   24  H   UNL     1       3.083   3.817  -4.509  1.00  0.00     0.157 HD
BRANCH  21  25
HETATM   25  C   UNL     1      -0.113   3.232  -2.068  1.00  0.00     0.035 A 
HETATM   26  C   UNL     1       0.839   3.068  -1.062  1.00  0.00     0.029 A 
HETATM   27  C   UNL     1       0.489   2.458   0.146  1.00  0.00     0.002 A 
HETATM   28  C   UNL     1      -0.819   2.026   0.364  1.00  0.00     0.000 A 
HETATM   29  C   UNL     1      -1.782   2.215  -0.621  1.00  0.00     0.002 A 
HETATM   30  C   UNL     1      -1.432   2.824  -1.828  1.00  0.00     0.029 A 
ENDBRANCH  21  25
ENDBRANCH  17  19
ENDBRANCH   1  17
TORSDOF 8
