REMARK  3 active torsions:
REMARK  status: ('A' for Active; 'I' for Inactive)
REMARK       I    between atoms: C_2  and  N_3 
REMARK    1  A    between atoms: N_3  and  C_4 
REMARK    2  A    between atoms: C_7  and  N_8 
REMARK       I    between atoms: N_8  and  C_9 
REMARK    3  A    between atoms: C_9  and  C_10 
ROOT
HETATM    1  C   UNL     1       2.471   1.501  -1.760  1.00  0.00     0.052 A 
HETATM    2  C   UNL     1       2.106   1.251  -3.077  1.00  0.00     0.148 A 
HETATM    3  N   UNL     1       1.881   2.219  -4.005  1.00  0.00    -0.241 NA
HETATM    4  C   UNL     1       2.019   3.503  -3.617  1.00  0.00     0.130 A 
HETATM    5  C   UNL     1       2.368   3.852  -2.322  1.00  0.00     0.053 A 
HETATM    6  C   UNL     1       2.597   2.838  -1.388  1.00  0.00     0.035 A 
ENDROOT
BRANCH   4   7
HETATM    7  N   UNL     1       1.784   4.415  -4.646  1.00  0.00    -0.307 N 
HETATM    8  C   UNL     1       1.875   5.785  -4.605  1.00  0.00     0.257 C 
HETATM    9  O   UNL     1       2.196   6.459  -3.632  1.00  0.00    -0.267 OA
HETATM   10  H   UNL     1       1.592   3.938  -5.515  1.00  0.00     0.170 HD
BRANCH   8  11
HETATM   11  C   UNL     1       1.580   6.490  -5.889  1.00  0.00     0.032 A 
HETATM   12  C   UNL     1       2.185   7.737  -6.112  1.00  0.00     0.018 A 
HETATM   13  C   UNL     1       1.949   8.437  -7.298  1.00  0.00     0.025 A 
HETATM   14  C   UNL     1       1.101   7.896  -8.262  1.00  0.00     0.034 A 
HETATM   15 CL   UNL     1       0.811   8.755  -9.724  1.00  0.00    -0.084 Cl
HETATM   16  C   UNL     1       0.480   6.667  -8.046  1.00  0.00     0.025 A 
HETATM   17  C   UNL     1       0.713   5.964  -6.858  1.00  0.00     0.018 A 
ENDBRANCH   8  11
ENDBRANCH   4   7
BRANCH   1  18
HETATM   18  N   UNL     1       2.728   0.519  -0.782  1.00  0.00    -0.326 N 
HETATM   19  C   UNL     1       2.663  -0.851  -0.953  1.00  0.00     0.218 C 
HETATM   20  C   UNL     1       3.037  -1.599   0.301  1.00  0.00     0.117 C 
HETATM   21  O   UNL     1       2.355  -1.443  -1.981  1.00  0.00    -0.274 OA
HETATM   22  H   UNL     1       2.997   0.855   0.134  1.00  0.00     0.169 HD
ENDBRANCH   1  18
TORSDOF 3
