REMARK  7 active torsions:
REMARK  status: ('A' for Active; 'I' for Inactive)
REMARK    1  A    between atoms: C_2  and  N_3 
REMARK    2  A    between atoms: C_5  and  C_6 
REMARK    3  A    between atoms: C_6  and  N_7 
REMARK       I    between atoms: N_7  and  C_8 
REMARK    4  A    between atoms: C_8  and  C_9 
REMARK    5  A    between atoms: N_15  and  C_16 
REMARK    6  A    between atoms: C_16  and  C_17 
REMARK       I    between atoms: C_17  and  N_18 
REMARK    7  A    between atoms: N_18  and  C_19 
ROOT
HETATM    1  C   UNL     1       6.112   3.554   2.726  1.00  0.00     0.081 A 
HETATM    2  S   UNL     1       6.635   1.940   2.466  1.00  0.00    -0.063 SA
HETATM    3  C   UNL     1       6.577   1.568   4.119  1.00  0.00     0.116 A 
HETATM    4  C   UNL     1       6.194   2.650   4.879  1.00  0.00     0.075 A 
HETATM    5  C   UNL     1       6.035   2.432   6.313  1.00  0.00     0.262 A 
HETATM    6  O   UNL     1       5.683   3.317   7.088  1.00  0.00    -0.267 OA
HETATM    7  N   UNL     1       6.296   1.126   6.723  1.00  0.00    -0.299 N 
HETATM    8  C   UNL     1       6.676   0.146   5.826  1.00  0.00     0.214 A 
HETATM    9  N   UNL     1       6.854   0.316   4.556  1.00  0.00    -0.235 NA
HETATM   10  C   UNL     1       5.979   3.840   4.084  1.00  0.00    -0.021 A 
HETATM   11  C   UNL     1       5.584   5.176   4.635  1.00  0.00     0.051 C 
ENDROOT
BRANCH   1  12
HETATM   12  C   UNL     1       5.875   4.431   1.583  1.00  0.00     0.259 C 
HETATM   13  N   UNL     1       5.704   3.796   0.367  1.00  0.00    -0.354 N 
HETATM   14  H   UNL     1       5.693   2.779   0.417  1.00  0.00     0.162 HD
HETATM   15  O   UNL     1       5.837   5.660   1.653  1.00  0.00    -0.267 OA
BRANCH  13  16
HETATM   16  C   UNL     1       5.195   4.385  -0.869  1.00  0.00     0.156 C 
BRANCH  16  17
HETATM   17  C   UNL     1       5.238   5.915  -1.023  1.00  0.00     0.206 C 
HETATM   18  N   UNL     1       6.571   6.577  -0.700  1.00  0.00    -0.066 N 
HETATM   19  H   UNL     1       6.579   6.600   0.342  1.00  0.00     0.280 HD
HETATM   20  C   UNL     1       6.433   7.982  -1.249  1.00  0.00     0.235 C 
HETATM   21  C   UNL     1       5.347   7.900  -2.320  1.00  0.00     0.030 C 
HETATM   22  C   UNL     1       4.952   6.434  -2.419  1.00  0.00     0.036 C 
BRANCH  18  23
HETATM   23  C   UNL     1       7.828   5.876  -1.148  1.00  0.00     0.231 C 
HETATM   24  C   UNL     1       9.027   6.422  -0.391  1.00  0.00     0.034 C 
ENDBRANCH  18  23
ENDBRANCH  16  17
ENDBRANCH  13  16
ENDBRANCH   1  12
BRANCH   7  25
HETATM   25  C   UNL     1       5.966   0.759   8.091  1.00  0.00     0.236 C 
BRANCH  25  26
HETATM   26  C   UNL     1       4.478   0.386   8.164  1.00  0.00     0.240 C 
HETATM   27  N   UNL     1       4.045   0.163   9.463  1.00  0.00    -0.326 N 
HETATM   28  H   UNL     1       4.734   0.225  10.204  1.00  0.00     0.169 HD
HETATM   29  O   UNL     1       3.801   0.257   7.148  1.00  0.00    -0.271 OA
BRANCH  27  30
HETATM   30  C   UNL     1       2.736  -0.173   9.875  1.00  0.00     0.036 A 
HETATM   31  C   UNL     1       1.633  -0.215   9.020  1.00  0.00     0.053 A 
HETATM   32  C   UNL     1       0.364  -0.551   9.510  1.00  0.00     0.042 A 
HETATM   33 CL   UNL     1      -0.954  -0.561   8.390  1.00  0.00    -0.084 Cl
HETATM   34  C   UNL     1       0.173  -0.859  10.864  1.00  0.00    -0.040 A 
HETATM   35  C   UNL     1      -1.177  -1.219  11.416  1.00  0.00     0.050 C 
HETATM   36  C   UNL     1       1.282  -0.810  11.718  1.00  0.00     0.011 A 
HETATM   37  C   UNL     1       2.547  -0.467  11.230  1.00  0.00     0.030 A 
ENDBRANCH  27  30
ENDBRANCH  25  26
ENDBRANCH   7  25
TORSDOF 7
