REMARK  5 active torsions:
REMARK  status: ('A' for Active; 'I' for Inactive)
REMARK    1  A    between atoms: C_2  and  C_3 
REMARK       I    between atoms: C_3  and  N_4 
REMARK    2  A    between atoms: N_4  and  C_5 
REMARK    3  A    between atoms: C_5  and  C_6 
REMARK    4  A    between atoms: C_5  and  C_17 
REMARK    5  A    between atoms: C_7  and  O_8 
ROOT
HETATM    1  C   UNL     1       0.284   2.013   1.584  1.00  0.00     0.154 C 
ENDROOT
BRANCH   1   2
HETATM    2  N   UNL     1       0.182   2.181   0.141  1.00  0.00    -0.348 N 
HETATM    3  C   UNL     1       1.237   1.876  -0.684  1.00  0.00     0.218 C 
HETATM    4  O   UNL     1       2.316   1.468  -0.258  1.00  0.00    -0.274 OA
HETATM    5  H   UNL     1      -0.743   2.149  -0.259  1.00  0.00     0.163 HD
BRANCH   3   6
HETATM    6  C   UNL     1       0.954   1.991  -2.168  1.00  0.00     0.098 C 
HETATM    7  C   UNL     1       0.206   3.257  -2.555  1.00  0.00     0.014 C 
ENDBRANCH   3   6
ENDBRANCH   1   2
BRANCH   1   8
HETATM    8  C   UNL     1      -0.039   0.568   1.944  1.00  0.00     0.005 A 
HETATM    9  C   UNL     1       0.981  -0.381   2.162  1.00  0.00     0.103 A 
HETATM   10  C   UNL     1       0.721  -1.720   2.505  1.00  0.00     0.100 A 
HETATM   11  C   UNL     1      -0.631  -2.112   2.603  1.00  0.00    -0.004 A 
HETATM   12  N   UNL     1       1.719  -2.610   2.720  1.00  0.00    -0.257 NA
HETATM   13  C   UNL     1      -1.662  -1.190   2.364  1.00  0.00     0.014 A 
HETATM   14  C   UNL     1      -0.923  -3.441   2.940  1.00  0.00     0.015 A 
HETATM   15  C   UNL     1      -1.369   0.132   2.033  1.00  0.00     0.013 A 
HETATM   16  C   UNL     1       0.109  -4.342   3.166  1.00  0.00     0.020 A 
HETATM   17  C   UNL     1       1.403  -3.881   3.045  1.00  0.00     0.117 A 
BRANCH   9  18
HETATM   18  O   UNL     1       2.300   0.007   2.049  1.00  0.00    -0.358 OA
HETATM   19  H   UNL     1       2.423   0.432   1.171  1.00  0.00     0.218 HD
ENDBRANCH   9  18
ENDBRANCH   1   8
BRANCH   1  20
HETATM   20  C   UNL     1      -0.533   3.041   2.369  1.00  0.00    -0.031 A 
HETATM   21  C   UNL     1      -0.182   3.288   3.710  1.00  0.00     0.009 A 
HETATM   22  C   UNL     1      -0.890   4.209   4.483  1.00  0.00     0.001 A 
HETATM   23  C   UNL     1      -1.967   4.896   3.931  1.00  0.00     0.000 A 
HETATM   24  C   UNL     1      -2.335   4.662   2.609  1.00  0.00     0.001 A 
HETATM   25  C   UNL     1      -1.624   3.743   1.831  1.00  0.00     0.009 A 
ENDBRANCH   1  20
TORSDOF 5
