REMARK  5 active torsions:
REMARK  status: ('A' for Active; 'I' for Inactive)
REMARK    1  A    between atoms: N_2  and  C_4 
REMARK    2  A    between atoms: C_4  and  C_5 
REMARK    3  A    between atoms: C_5  and  N_6 
REMARK    4  A    between atoms: C_11  and  C_12 
REMARK    5  A    between atoms: C_15  and  O_16 
ROOT
HETATM    1  N   UNL     1       3.105  -4.022  -1.287  1.00  0.00    -0.332 N 
HETATM    2  C   UNL     1       2.721  -5.135  -0.544  1.00  0.00     0.279 C 
HETATM    3  O   UNL     1       2.070  -5.115   0.485  1.00  0.00    -0.265 OA
HETATM    4  C   UNL     1       3.246  -6.320  -1.241  1.00  0.00     0.156 C 
HETATM    5  C   UNL     1       3.827  -5.871  -2.351  1.00  0.00     0.060 C 
HETATM    6  C   UNL     1       3.702  -4.410  -2.564  1.00  0.00     0.161 C 
HETATM    7  O   UNL     1       3.112  -7.618  -0.838  1.00  0.00    -0.303 OA
HETATM    8  C   UNL     1       3.545  -8.570  -1.740  1.00  0.00     0.090 A 
HETATM    9  C   UNL     1       4.214  -8.243  -2.933  1.00  0.00     0.051 A 
HETATM   10  C   UNL     1       4.460  -6.821  -3.255  1.00  0.00     0.196 C 
HETATM   11  O   UNL     1       5.138  -6.453  -4.200  1.00  0.00    -0.287 OA
HETATM   12  C   UNL     1       3.279  -9.904  -1.435  1.00  0.00     0.041 A 
HETATM   13  C   UNL     1       3.674 -10.904  -2.327  1.00  0.00     0.045 A 
HETATM   14  C   UNL     1       4.336 -10.564  -3.506  1.00  0.00     0.117 A 
HETATM   15  F   UNL     1       4.701 -11.532  -4.355  1.00  0.00    -0.206 F 
HETATM   16  C   UNL     1       4.618  -9.241  -3.819  1.00  0.00     0.060 A 
ENDROOT
BRANCH   6  17
HETATM   17  C   UNL     1       2.834  -4.081  -3.766  1.00  0.00    -0.030 A 
HETATM   18  C   UNL     1       1.458  -4.385  -3.803  1.00  0.00     0.012 A 
HETATM   19  C   UNL     1       0.707  -4.166  -4.961  1.00  0.00     0.037 A 
HETATM   20  C   UNL     1       1.327  -3.640  -6.087  1.00  0.00     0.065 A 
HETATM   21  C   UNL     1       2.678  -3.321  -6.071  1.00  0.00     0.037 A 
HETATM   22  C   UNL     1       3.432  -3.546  -4.918  1.00  0.00     0.012 A 
BRANCH  20  23
HETATM   23  O   UNL     1       0.640  -3.433  -7.245  1.00  0.00    -0.361 OA
HETATM   24  H   UNL     1      -0.229  -3.862  -7.182  1.00  0.00     0.217 HD
ENDBRANCH  20  23
ENDBRANCH   6  17
BRANCH   1  25
HETATM   25  C   UNL     1       2.620  -2.679  -1.008  1.00  0.00     0.155 C 
BRANCH  25  26
HETATM   26  C   UNL     1       3.005  -2.166   0.396  1.00  0.00     0.254 C 
BRANCH  26  27
HETATM   27  N   UNL     1       2.204  -0.935   0.795  1.00  0.00    -0.077 N 
HETATM   28  C   UNL     1       2.490   0.277  -0.046  1.00  0.00     0.269 C 
HETATM   29  H   UNL     1       1.209  -1.172   0.676  1.00  0.00     0.279 HD
HETATM   30  C   UNL     1       2.378  -0.632   2.262  1.00  0.00     0.269 C 
ENDBRANCH  26  27
ENDBRANCH  25  26
ENDBRANCH   1  25
TORSDOF 5
