REMARK  5 active torsions:
REMARK  status: ('A' for Active; 'I' for Inactive)
REMARK    1  A    between atoms: C_3  and  O_4 
REMARK    2  A    between atoms: C_6  and  N_7 
REMARK       I    between atoms: N_7  and  C_8 
REMARK    3  A    between atoms: C_8  and  C_9 
REMARK    4  A    between atoms: C_12  and  C_13 
REMARK    5  A    between atoms: C_18  and  C_19 
ROOT
HETATM    1  C   UNL     1      -3.582  -1.295  -0.638  1.00  0.00     0.096 C 
HETATM    2  C   UNL     1      -3.143   0.014  -0.707  1.00  0.00     0.138 C 
HETATM    3  N   UNL     1      -4.258   0.796  -0.498  1.00  0.00    -0.240 N 
HETATM    4  C   UNL     1      -4.263   2.249  -0.537  1.00  0.00     0.221 C 
HETATM    5  C   UNL     1      -2.827   2.796  -0.440  1.00  0.00     0.066 C 
HETATM    6  C   UNL     1      -1.891   1.990  -1.346  1.00  0.00     0.118 C 
HETATM    7  N   UNL     1      -1.924   0.577  -0.945  1.00  0.00    -0.365 N 
HETATM    8  N   UNL     1      -5.401   0.096  -0.473  1.00  0.00    -0.181 NA
HETATM    9  C   UNL     1      -4.988  -1.174  -0.524  1.00  0.00     0.160 C 
HETATM   10  H   UNL     1      -1.249   0.026  -1.481  1.00  0.00     0.161 HD
ENDROOT
BRANCH   1  11
HETATM   11  C   UNL     1      -2.826  -2.535  -0.714  1.00  0.00     0.261 C 
HETATM   12  N   UNL     1      -1.498  -2.387  -0.359  1.00  0.00    -0.323 N 
HETATM   13  H   UNL     1      -1.249  -1.478   0.016  1.00  0.00     0.169 HD
HETATM   14  O   UNL     1      -3.379  -3.581  -1.031  1.00  0.00    -0.267 OA
BRANCH  12  15
HETATM   15  C   UNL     1      -0.485  -3.366  -0.372  1.00  0.00     0.037 A 
HETATM   16  C   UNL     1      -0.649  -4.654  -0.886  1.00  0.00     0.066 A 
HETATM   17  C   UNL     1       0.416  -5.553  -0.867  1.00  0.00     0.067 A 
HETATM   18  C   UNL     1       1.652  -5.194  -0.341  1.00  0.00     0.036 A 
HETATM   19  C   UNL     1       1.825  -3.910   0.171  1.00  0.00     0.005 A 
HETATM   20  C   UNL     1       0.763  -3.000   0.152  1.00  0.00     0.029 A 
BRANCH  17  21
HETATM   21  O   UNL     1       0.206  -6.797  -1.387  1.00  0.00    -0.361 OA
HETATM   22  H   UNL     1       1.019  -7.319  -1.295  1.00  0.00     0.217 HD
ENDBRANCH  17  21
ENDBRANCH  12  15
ENDBRANCH   1  11
BRANCH   4  23
HETATM   23  C   UNL     1      -5.108   2.840   0.570  1.00  0.00     0.409 C 
HETATM   24  F   UNL     1      -4.692   2.454   1.797  1.00  0.00    -0.169 F 
HETATM   25  F   UNL     1      -5.009   4.197   0.538  1.00  0.00    -0.169 F 
HETATM   26  F   UNL     1      -6.422   2.560   0.458  1.00  0.00    -0.169 F 
ENDBRANCH   4  23
BRANCH   6  27
HETATM   27  C   UNL     1      -0.467   2.507  -1.281  1.00  0.00    -0.035 A 
HETATM   28  C   UNL     1       0.320   2.343  -0.125  1.00  0.00     0.012 A 
HETATM   29  C   UNL     1       1.622   2.844  -0.075  1.00  0.00     0.043 A 
HETATM   30  C   UNL     1       2.142   3.512  -1.176  1.00  0.00     0.116 A 
HETATM   31  F   UNL     1       3.391   3.995  -1.127  1.00  0.00    -0.206 F 
HETATM   32  C   UNL     1       1.386   3.688  -2.328  1.00  0.00     0.043 A 
HETATM   33  C   UNL     1       0.084   3.187  -2.381  1.00  0.00     0.012 A 
ENDBRANCH   6  27
TORSDOF 5
