REMARK  9 active torsions:
REMARK  status: ('A' for Active; 'I' for Inactive)
REMARK    1  A    between atoms: N_6  and  C_7 
REMARK    2  A    between atoms: C_9  and  S_10 
REMARK    3  A    between atoms: S_10  and  C_11 
REMARK    4  A    between atoms: C_11  and  C_12 
REMARK    5  A    between atoms: C_14  and  C_15 
REMARK       I    between atoms: C_15  and  N_16 
REMARK    6  A    between atoms: N_16  and  C_17 
REMARK    7  A    between atoms: C_17  and  C_18 
REMARK    8  A    between atoms: C_18  and  N_19 
REMARK    9  A    between atoms: C_27  and  C_28 
ROOT
HETATM    1  C   UNL     1       6.288  -0.181   3.013  1.00  0.00     0.130 A 
HETATM    2  N   UNL     1       6.268   1.079   3.483  1.00  0.00    -0.205 NA
HETATM    3  C   UNL     1       5.988   1.273   4.784  1.00  0.00     0.191 A 
HETATM    4  N   UNL     1       5.641   0.304   5.634  1.00  0.00    -0.218 NA
HETATM    5  C   UNL     1       5.652  -0.962   5.164  1.00  0.00     0.146 A 
HETATM    6  C   UNL     1       5.991  -1.241   3.850  1.00  0.00     0.087 A 
ENDROOT
BRANCH   3   7
HETATM    7  S   UNL     1       6.148   2.923   5.422  1.00  0.00    -0.084 SA
BRANCH   7   8
HETATM    8  C   UNL     1       6.554   2.490   7.138  1.00  0.00     0.147 C 
BRANCH   8   9
HETATM    9  C   UNL     1       6.937   3.661   7.970  1.00  0.00     0.063 A 
HETATM   10  O   UNL     1       5.942   4.520   8.343  1.00  0.00    -0.309 OA
HETATM   11  C   UNL     1       6.483   5.397   9.247  1.00  0.00     0.143 A 
HETATM   12  C   UNL     1       7.825   5.125   9.413  1.00  0.00     0.045 A 
HETATM   13  C   UNL     1       8.123   4.026   8.573  1.00  0.00     0.036 A 
BRANCH  11  14
HETATM   14  C   UNL     1       5.624   6.363   9.884  1.00  0.00     0.275 C 
HETATM   15  N   UNL     1       4.493   6.705   9.173  1.00  0.00    -0.354 N 
HETATM   16  H   UNL     1       4.431   6.320   8.232  1.00  0.00     0.162 HD
HETATM   17  O   UNL     1       5.816   6.849  11.000  1.00  0.00    -0.265 OA
BRANCH  15  18
HETATM   18  C   UNL     1       3.656   7.839   9.537  1.00  0.00     0.150 C 
BRANCH  18  19
HETATM   19  C   UNL     1       2.659   7.542  10.675  1.00  0.00     0.253 C 
BRANCH  19  20
HETATM   20  N   UNL     1       3.350   7.261  11.994  1.00  0.00    -0.077 N 
HETATM   21  H   UNL     1       4.272   6.836  11.772  1.00  0.00     0.279 HD
HETATM   22  C   UNL     1       3.702   8.499  12.766  1.00  0.00     0.269 C 
HETATM   23  C   UNL     1       2.604   6.270  12.834  1.00  0.00     0.269 C 
ENDBRANCH  19  20
ENDBRANCH  18  19
ENDBRANCH  15  18
ENDBRANCH  11  14
ENDBRANCH   8   9
ENDBRANCH   7   8
ENDBRANCH   3   7
BRANCH   1  24
HETATM   24  N   UNL     1       6.683  -0.393   1.689  1.00  0.00    -0.362 N 
HETATM   25  C   UNL     1       7.080   0.817   0.935  1.00  0.00     0.152 C 
HETATM   26  C   UNL     1       5.856   1.478   0.266  1.00  0.00     0.254 C 
HETATM   27  N   UNL     1       5.134   0.454  -0.622  1.00  0.00    -0.072 N 
HETATM   28  C   UNL     1       3.969   1.052  -1.350  1.00  0.00     0.269 C 
HETATM   29  H   UNL     1       5.812   0.150  -1.334  1.00  0.00     0.279 HD
HETATM   30  C   UNL     1       4.737  -0.783   0.181  1.00  0.00     0.254 C 
HETATM   31  C   UNL     1       5.973  -1.399   0.875  1.00  0.00     0.152 C 
ENDBRANCH   1  24
BRANCH   5  32
HETATM   32  C   UNL     1       5.289  -2.111   6.092  1.00  0.00     0.434 C 
HETATM   33  F   UNL     1       5.116  -1.739   7.388  1.00  0.00    -0.165 F 
HETATM   34  F   UNL     1       4.130  -2.719   5.711  1.00  0.00    -0.165 F 
HETATM   35  F   UNL     1       6.237  -3.089   6.098  1.00  0.00    -0.165 F 
ENDBRANCH   5  32
TORSDOF 9
