REMARK  7 active torsions:
REMARK  status: ('A' for Active; 'I' for Inactive)
REMARK    1  A    between atoms: C_8  and  C_9 
REMARK    2  A    between atoms: C_9  and  N_10 
REMARK    3  A    between atoms: C_9  and  C_14 
REMARK       I    between atoms: C_14  and  N_15 
REMARK    4  A    between atoms: N_15  and  C_16 
REMARK    5  A    between atoms: C_16  and  C_17 
REMARK    6  A    between atoms: C_17  and  C_18 
REMARK    7  A    between atoms: C_20  and  C_21 
ROOT
HETATM    1  C   UNL     1       1.259  -2.335   0.645  1.00  0.00     0.253 C 
HETATM    2  N   UNL     1       0.487  -1.453  -0.072  1.00  0.00    -0.359 N 
HETATM    3  O   UNL     1       0.839  -3.035   1.568  1.00  0.00    -0.271 OA
HETATM    4  H   UNL     1       0.835  -1.076  -0.949  1.00  0.00     0.162 HD
ENDROOT
BRANCH   1   5
HETATM    5  C   UNL     1       2.763  -2.385   0.300  1.00  0.00     0.311 C 
BRANCH   5   6
HETATM    6  C   UNL     1       3.010  -3.027  -1.022  1.00  0.00     0.031 A 
HETATM    7  C   UNL     1       2.684  -4.307  -1.456  1.00  0.00     0.035 A 
HETATM    8  C   UNL     1       1.971  -5.444  -0.819  1.00  0.00     0.070 C 
HETATM    9  N   UNL     1       3.137  -4.394  -2.747  1.00  0.00    -0.282 N 
HETATM   10  H   UNL     1       3.069  -5.176  -3.394  1.00  0.00     0.189 HD
HETATM   11  N   UNL     1       3.743  -3.279  -3.165  1.00  0.00    -0.179 NA
HETATM   12  C   UNL     1       3.663  -2.434  -2.140  1.00  0.00     0.061 A 
HETATM   13  C   UNL     1       4.231  -1.065  -2.276  1.00  0.00     0.073 C 
ENDBRANCH   5   6
BRANCH   5  14
HETATM   14  N   UNL     1       3.481  -3.138   1.381  1.00  0.00    -0.062 N 
HETATM   15  H   UNL     1       3.509  -2.593   2.249  1.00  0.00     0.275 HD
HETATM   16  H   UNL     1       2.923  -3.976   1.596  1.00  0.00     0.275 HD
HETATM   17  H   UNL     1       4.424  -3.420   1.100  1.00  0.00     0.275 HD
ENDBRANCH   5  14
ENDBRANCH   1   5
BRANCH   2  18
HETATM   18  C   UNL     1      -0.959  -1.374   0.107  1.00  0.00     0.127 C 
BRANCH  18  19
HETATM   19  C   UNL     1      -1.480   0.066   0.053  1.00  0.00     0.058 C 
BRANCH  19  20
HETATM   20  C   UNL     1      -1.167   0.785  -1.241  1.00  0.00    -0.056 A 
HETATM   21  C   UNL     1      -0.376   1.944  -1.233  1.00  0.00     0.023 A 
HETATM   22  C   UNL     1      -0.092   2.636  -2.422  1.00  0.00     0.048 A 
HETATM   23  C   UNL     1      -0.608   2.147  -3.630  1.00  0.00     0.016 A 
HETATM   24  C   UNL     1      -1.402   1.001  -3.647  1.00  0.00     0.001 A 
HETATM   25  C   UNL     1      -1.684   0.326  -2.459  1.00  0.00     0.007 A 
BRANCH  22  26
HETATM   26  C   UNL     1       0.758   3.885  -2.417  1.00  0.00     0.417 C 
HETATM   27  F   UNL     1       1.110   4.289  -1.164  1.00  0.00    -0.166 F 
HETATM   28  F   UNL     1       1.930   3.705  -3.087  1.00  0.00    -0.166 F 
HETATM   29  F   UNL     1       0.144   4.948  -3.000  1.00  0.00    -0.166 F 
ENDBRANCH  22  26
ENDBRANCH  19  20
ENDBRANCH  18  19
ENDBRANCH   2  18
TORSDOF 7
