REMARK  5 active torsions:
REMARK  status: ('A' for Active; 'I' for Inactive)
REMARK    1  A    between atoms: C_9  and  C_10 
REMARK    2  A    between atoms: C_10  and  N_11 
REMARK    3  A    between atoms: N_11  and  C_12 
REMARK    4  A    between atoms: C_13  and  O_14 
REMARK    5  A    between atoms: C_16  and  O_17 
ROOT
HETATM    1  C   UNL     1       0.939  -0.070   0.135  1.00  0.00     0.048 C 
HETATM    2  C   UNL     1       2.437  -0.027   0.218  1.00  0.00    -0.061 A 
HETATM    3  C   UNL     1       3.189  -1.211   0.175  1.00  0.00     0.020 A 
HETATM    4  C   UNL     1       4.586  -1.164   0.219  1.00  0.00    -0.008 A 
HETATM    5  C   UNL     1       5.229   0.075   0.295  1.00  0.00     0.045 A 
HETATM    6  N   UNL     1       6.627   0.118   0.324  1.00  0.00    -0.322 N 
HETATM    7  C   UNL     1       7.426  -0.994   0.277  1.00  0.00     0.253 A 
HETATM    8  O   UNL     1       8.648  -0.885   0.257  1.00  0.00    -0.268 OA
HETATM    9  C   UNL     1       6.741  -2.321   0.232  1.00  0.00     0.024 A 
HETATM   10  C   UNL     1       5.396  -2.381   0.183  1.00  0.00     0.027 A 
HETATM   11  C   UNL     1       4.496   1.259   0.327  1.00  0.00     0.031 A 
HETATM   12  C   UNL     1       3.102   1.205   0.284  1.00  0.00     0.009 A 
HETATM   13  H   UNL     1       7.110   1.005   0.361  1.00  0.00     0.169 HD
ENDROOT
BRANCH   9  14
HETATM   14  C   UNL     1       7.620  -3.536   0.175  1.00  0.00     0.136 C 
BRANCH  14  15
HETATM   15  N   UNL     1       7.731  -4.094   1.523  1.00  0.00    -0.286 NA
HETATM   16  H   UNL     1       6.810  -4.277   1.926  1.00  0.00     0.128 HD
BRANCH  15  17
HETATM   17  C   UNL     1       8.538  -5.231   1.724  1.00  0.00     0.042 A 
HETATM   18  C   UNL     1       8.698  -5.688   3.046  1.00  0.00     0.089 A 
HETATM   19  C   UNL     1       9.439  -6.819   3.368  1.00  0.00     0.074 A 
HETATM   20  C   UNL     1      10.070  -7.505   2.340  1.00  0.00     0.068 A 
HETATM   21  C   UNL     1       9.967  -7.066   1.024  1.00  0.00     0.038 A 
HETATM   22  C   UNL     1       9.210  -5.928   0.717  1.00  0.00     0.029 A 
BRANCH  18  23
HETATM   23  O   UNL     1       8.140  -4.963   4.068  1.00  0.00    -0.359 OA
HETATM   24  H   UNL     1       7.985  -4.084   3.666  1.00  0.00     0.218 HD
ENDBRANCH  18  23
BRANCH  20  25
HETATM   25  O   UNL     1      10.820  -8.618   2.582  1.00  0.00    -0.361 OA
HETATM   26  H   UNL     1      10.824  -8.781   3.540  1.00  0.00     0.217 HD
ENDBRANCH  20  25
ENDBRANCH  15  17
ENDBRANCH  14  15
ENDBRANCH   9  14
TORSDOF 5
