REMARK  3 active torsions:
REMARK  status: ('A' for Active; 'I' for Inactive)
REMARK    1  A    between atoms: C_4  and  C_5 
REMARK    2  A    between atoms: C_5  and  N_6 
REMARK    3  A    between atoms: N_10  and  S_11 
ROOT
HETATM    1  N   UNL     1       6.959   0.876  -0.048  1.00  0.00    -0.063 N 
HETATM    2  H   UNL     1       7.025   0.410   0.867  1.00  0.00     0.280 HD
HETATM    3  C   UNL     1       8.169   1.786  -0.212  1.00  0.00     0.267 C 
HETATM    4  C   UNL     1       9.515   0.983  -0.170  1.00  0.00     0.067 C 
HETATM    5  N   UNL     1      10.744   1.890  -0.354  1.00  0.00    -0.300 N 
HETATM    6  C   UNL     1      12.035   1.135  -0.258  1.00  0.00     0.136 C 
HETATM    7  C   UNL     1      12.164   0.507   1.124  1.00  0.00     0.021 C 
HETATM    8  C   UNL     1      10.981  -0.392   1.447  1.00  0.00     0.004 C 
HETATM    9  C   UNL     1       9.664   0.355   1.250  1.00  0.00     0.033 C 
HETATM   10  C   UNL     1       9.425  -0.098  -1.278  1.00  0.00     0.035 C 
HETATM   11  C   UNL     1       8.166  -0.966  -1.174  1.00  0.00     0.030 C 
HETATM   12  C   UNL     1       6.883  -0.148  -1.141  1.00  0.00     0.235 C 
ENDROOT
BRANCH   5  13
HETATM   13  S   UNL     1      10.695   3.087  -1.574  1.00  0.00     0.225 S 
HETATM   14  C   UNL     1      12.121   4.114  -1.256  1.00  0.00     0.186 C 
HETATM   15  O   UNL     1      10.855   2.404  -2.836  1.00  0.00    -0.206 OA
HETATM   16  O   UNL     1       9.518   3.891  -1.315  1.00  0.00    -0.206 OA
ENDBRANCH   5  13
BRANCH   1  17
HETATM   17  C   UNL     1       5.677   1.682   0.074  1.00  0.00     0.299 C 
BRANCH  17  18
HETATM   18  C   UNL     1       5.571   2.354   1.393  1.00  0.00     0.079 A 
HETATM   19  O   UNL     1       6.215   1.739   2.431  1.00  0.00    -0.318 OA
HETATM   20  C   UNL     1       6.018   2.514   3.535  1.00  0.00     0.049 A 
HETATM   21  C   UNL     1       6.639   2.055   4.795  1.00  0.00     0.076 C 
HETATM   22  C   UNL     1       5.253   3.613   3.211  1.00  0.00     0.035 A 
HETATM   23  C   UNL     1       4.963   3.510   1.829  1.00  0.00     0.037 A 
ENDBRANCH  17  18
ENDBRANCH   1  17
TORSDOF 3
