REMARK  7 active torsions:
REMARK  status: ('A' for Active; 'I' for Inactive)
REMARK    1  A    between atoms: C_2  and  C_3 
REMARK    2  A    between atoms: C_3  and  N_4 
REMARK    3  A    between atoms: C_7  and  C_8 
REMARK    4  A    between atoms: C_8  and  N_9 
REMARK       I    between atoms: N_9  and  C_10 
REMARK       I    between atoms: C_10  and  N_11 
REMARK    5  A    between atoms: N_11  and  C_12 
REMARK    6  A    between atoms: C_15  and  N_16 
REMARK       I    between atoms: N_16  and  C_17 
REMARK    7  A    between atoms: C_17  and  C_18 
ROOT
HETATM    1  N   UNL     1       2.666  -1.190  -3.479  1.00  0.00    -0.342 N 
HETATM    2  C   UNL     1       1.323  -0.955  -3.470  1.00  0.00     0.320 C 
HETATM    3  N   UNL     1       0.501  -2.040  -3.420  1.00  0.00    -0.309 N 
HETATM    4  O   UNL     1       0.846   0.176  -3.524  1.00  0.00    -0.247 OA
HETATM    5  H   UNL     1       2.878  -2.106  -3.859  1.00  0.00     0.164 HD
HETATM    6  H   UNL     1      -0.453  -1.799  -3.669  1.00  0.00     0.170 HD
ENDROOT
BRANCH   3   7
HETATM    7  C   UNL     1       0.749  -3.396  -3.141  1.00  0.00     0.036 A 
HETATM    8  C   UNL     1       1.856  -3.854  -2.426  1.00  0.00     0.032 A 
HETATM    9  C   UNL     1       2.072  -5.226  -2.244  1.00  0.00     0.032 A 
HETATM   10  C   UNL     1       1.178  -6.161  -2.763  1.00  0.00     0.035 A 
HETATM   11  C   UNL     1       0.029  -5.699  -3.412  1.00  0.00     0.032 A 
HETATM   12  C   UNL     1      -0.190  -4.328  -3.588  1.00  0.00     0.032 A 
BRANCH  10  13
HETATM   13  N   UNL     1       1.371  -7.551  -2.701  1.00  0.00    -0.321 N 
HETATM   14  C   UNL     1       2.456  -8.245  -2.191  1.00  0.00     0.279 C 
HETATM   15  O   UNL     1       3.409  -7.739  -1.605  1.00  0.00    -0.265 OA
HETATM   16  H   UNL     1       0.671  -8.140  -3.143  1.00  0.00     0.169 HD
BRANCH  14  17
HETATM   17  C   UNL     1       2.370  -9.673  -2.441  1.00  0.00     0.142 A 
HETATM   18  O   UNL     1       1.292 -10.171  -3.129  1.00  0.00    -0.317 OA
HETATM   19  C   UNL     1       1.478 -11.511  -3.249  1.00  0.00     0.143 A 
HETATM   20  C   UNL     1       2.654 -11.891  -2.647  1.00  0.00     0.027 A 
HETATM   21  C   UNL     1       3.228 -10.708  -2.122  1.00  0.00     0.045 A 
ENDBRANCH  14  17
ENDBRANCH  10  13
ENDBRANCH   3   7
BRANCH   1  22
HETATM   22  C   UNL     1       3.680  -0.190  -3.770  1.00  0.00     0.130 C 
BRANCH  22  23
HETATM   23  C   UNL     1       3.447   1.242  -3.262  1.00  0.00     0.031 C 
HETATM   24  C   UNL     1       3.031   1.333  -1.800  1.00  0.00     0.241 C 
HETATM   25  N   UNL     1       4.313   1.607  -1.017  1.00  0.00    -0.071 N 
HETATM   26  H   UNL     1       4.172   2.525  -0.575  1.00  0.00     0.279 HD
HETATM   27  C   UNL     1       5.432   1.752  -2.020  1.00  0.00     0.235 C 
HETATM   28  C   UNL     1       4.720   2.081  -3.317  1.00  0.00     0.035 C 
BRANCH  25  29
HETATM   29  C   UNL     1       4.556   0.603   0.078  1.00  0.00     0.234 C 
BRANCH  29  30
HETATM   30  C   UNL     1       5.736   0.996   0.964  1.00  0.00     0.023 C 
HETATM   31  C   UNL     1       5.522   2.298   1.723  1.00  0.00     0.007 C 
ENDBRANCH  29  30
ENDBRANCH  25  29
ENDBRANCH  22  23
ENDBRANCH   1  22
TORSDOF 7
