REMARK  3 active torsions:
REMARK  status: ('A' for Active; 'I' for Inactive)
REMARK    1  A    between atoms: C_7  and  C_8 
REMARK    2  A    between atoms: N_9  and  C_11 
REMARK    3  A    between atoms: C_11  and  C_12 
ROOT
HETATM    1  C   UNL     1      -4.130   0.120  -0.893  1.00  0.00     0.238 C 
HETATM    2  N   UNL     1      -4.939   0.885   0.140  1.00  0.00    -0.056 N 
HETATM    3  H   UNL     1      -5.902   0.863  -0.211  1.00  0.00     0.281 HD
HETATM    4  C   UNL     1      -4.555   2.344   0.235  1.00  0.00     0.236 C 
HETATM    5  C   UNL     1      -4.699   3.018  -1.117  1.00  0.00     0.028 C 
HETATM    6  C   UNL     1      -3.822   2.329  -2.148  1.00  0.00     0.004 C 
HETATM    7  C   UNL     1      -4.186   0.856  -2.247  1.00  0.00     0.040 C 
ENDROOT
BRANCH   2   8
HETATM    8  C   UNL     1      -5.013   0.227   1.514  1.00  0.00     0.294 C 
BRANCH   8   9
HETATM    9  C   UNL     1      -3.747   0.210   2.277  1.00  0.00     0.061 A 
HETATM   10  N   UNL     1      -2.947  -0.899   2.472  1.00  0.00    -0.305 N 
HETATM   11  C   UNL     1      -1.848  -0.473   3.176  1.00  0.00     0.151 A 
HETATM   12  C   UNL     1      -3.048  -2.231   2.105  1.00  0.00     0.118 A 
HETATM   13  C   UNL     1      -0.803  -1.416   3.470  1.00  0.00     0.167 A 
HETATM   14  N   UNL     1      -1.919   0.794   3.507  1.00  0.00    -0.239 NA
HETATM   15  N   UNL     1      -0.889  -2.662   3.088  1.00  0.00    -0.268 NA
HETATM   16  C   UNL     1      -2.035  -3.058   2.422  1.00  0.00     0.134 A 
HETATM   17  C   UNL     1      -3.119   1.211   3.004  1.00  0.00     0.146 A 
ENDBRANCH   8   9
ENDBRANCH   2   8
BRANCH   1  18
HETATM   18  C   UNL     1      -4.650  -1.269  -1.097  1.00  0.00     0.041 A 
HETATM   19  N   UNL     1      -3.804  -2.339  -1.306  1.00  0.00    -0.357 N 
HETATM   20  C   UNL     1      -4.526  -3.492  -1.506  1.00  0.00     0.042 A 
HETATM   21  H   UNL     1      -2.791  -2.309  -1.331  1.00  0.00     0.166 HD
HETATM   22  C   UNL     1      -5.876  -3.151  -1.459  1.00  0.00    -0.008 A 
HETATM   23  C   UNL     1      -4.089  -4.800  -1.747  1.00  0.00     0.030 A 
HETATM   24  C   UNL     1      -6.841  -4.154  -1.665  1.00  0.00     0.014 A 
HETATM   25  C   UNL     1      -5.943  -1.754  -1.212  1.00  0.00     0.040 A 
HETATM   26  C   UNL     1      -6.421  -5.466  -1.909  1.00  0.00     0.001 A 
HETATM   27  C   UNL     1      -5.064  -5.781  -1.948  1.00  0.00     0.002 A 
ENDBRANCH   1  18
TORSDOF 3
