REMARK  7 active torsions:
REMARK  status: ('A' for Active; 'I' for Inactive)
REMARK    1  A    between atoms: C_2  and  N_3 
REMARK    2  A    between atoms: C_11  and  C_12 
REMARK    3  A    between atoms: C_14  and  O_15 
REMARK    4  A    between atoms: C_17  and  O_18 
REMARK    5  A    between atoms: O_18  and  C_19 
REMARK    6  A    between atoms: C_19  and  C_20 
REMARK    7  A    between atoms: C_31  and  O_32 
ROOT
HETATM    1  N   UNL     1       2.869  -1.064   0.311  1.00  0.00    -0.067 N 
HETATM    2  H   UNL     1       2.592  -2.037   0.487  1.00  0.00     0.280 HD
HETATM    3  C   UNL     1       3.995  -1.140  -0.725  1.00  0.00     0.281 C 
HETATM    4  C   UNL     1       4.781   0.125  -0.751  1.00  0.00     0.018 A 
HETATM    5  C   UNL     1       4.773   1.091   0.244  1.00  0.00    -0.024 A 
HETATM    6  C   UNL     1       5.623   2.188  -0.103  1.00  0.00     0.057 A 
HETATM    7  C   UNL     1       6.260   1.976  -1.299  1.00  0.00     0.087 A 
HETATM    8  N   UNL     1       7.127   2.866  -1.818  1.00  0.00    -0.357 N 
HETATM    9  C   UNL     1       7.677   3.865  -0.905  1.00  0.00     0.243 C 
HETATM   10  N   UNL     1       6.830   4.255   0.243  1.00  0.00    -0.235 NA
HETATM   11  C   UNL     1       5.909   3.426   0.572  1.00  0.00     0.173 C 
HETATM   12  S   UNL     1       5.828   0.511  -2.035  1.00  0.00    -0.074 SA
HETATM   13  C   UNL     1       3.934   0.935   1.477  1.00  0.00     0.068 C 
HETATM   14  C   UNL     1       3.412  -0.506   1.628  1.00  0.00     0.240 C 
HETATM   15  H   UNL     1       7.754   2.570  -2.560  1.00  0.00     0.162 HD
ENDROOT
BRANCH   9  16
HETATM   16  C   UNL     1       9.078   3.418  -0.478  1.00  0.00    -0.012 A 
HETATM   17  C   UNL     1       9.345   2.961   0.828  1.00  0.00     0.050 A 
HETATM   18  C   UNL     1      10.617   2.509   1.186  1.00  0.00     0.102 A 
HETATM   19  C   UNL     1      11.618   2.460   0.212  1.00  0.00     0.112 A 
HETATM   20  C   UNL     1      11.394   2.940  -1.077  1.00  0.00     0.041 A 
HETATM   21  C   UNL     1      10.127   3.416  -1.418  1.00  0.00     0.014 A 
BRANCH  18  22
HETATM   22  O   UNL     1      10.937   2.051   2.436  1.00  0.00    -0.353 OA
HETATM   23  C   UNL     1      10.295   2.729   3.511  1.00  0.00     0.210 C 
ENDBRANCH  18  22
BRANCH  19  24
HETATM   24  O   UNL     1      12.882   1.991   0.592  1.00  0.00    -0.272 OA
BRANCH  24  25
HETATM   25  C   UNL     1      13.250   0.815  -0.026  1.00  0.00     0.300 C 
HETATM   26  O   UNL     1      12.761   0.262  -0.997  1.00  0.00    -0.259 OA
BRANCH  25  27
HETATM   27  C   UNL     1      14.412   0.302   0.707  1.00  0.00     0.061 A 
HETATM   28  C   UNL     1      14.242  -0.579   1.778  1.00  0.00     0.050 A 
HETATM   29 CL   UNL     1      12.686  -1.113   2.299  1.00  0.00    -0.083 Cl
HETATM   30  C   UNL     1      15.365  -1.054   2.459  1.00  0.00     0.025 A 
HETATM   31  C   UNL     1      16.645  -0.654   2.067  1.00  0.00     0.002 A 
HETATM   32  C   UNL     1      16.809   0.219   0.990  1.00  0.00     0.001 A 
HETATM   33  C   UNL     1      15.693   0.699   0.304  1.00  0.00     0.019 A 
ENDBRANCH  25  27
ENDBRANCH  24  25
ENDBRANCH  19  24
ENDBRANCH   9  16
BRANCH  11  34
HETATM   34  O   UNL     1       5.141   3.720   1.636  1.00  0.00    -0.344 OA
HETATM   35  H   UNL     1       5.438   4.590   1.959  1.00  0.00     0.219 HD
ENDBRANCH  11  34
BRANCH   1  36
HETATM   36  C   UNL     1       1.648  -0.358  -0.242  1.00  0.00     0.231 C 
HETATM   37  C   UNL     1       0.472  -0.475   0.709  1.00  0.00     0.034 C 
ENDBRANCH   1  36
TORSDOF 7
