REMARK  5 active torsions:
REMARK  status: ('A' for Active; 'I' for Inactive)
REMARK    1  A    between atoms: C_6  and  N_7 
REMARK       I    between atoms: N_7  and  C_8 
REMARK    2  A    between atoms: C_8  and  C_9 
REMARK    3  A    between atoms: C_9  and  O_10 
REMARK    4  A    between atoms: O_10  and  C_11 
REMARK    5  A    between atoms: C_19  and  C_20 
ROOT
HETATM    1  C   UNL     1       1.208   0.966   1.154  1.00  0.00     0.073 C 
HETATM    2  C   UNL     1       2.533   0.522   0.654  1.00  0.00     0.065 A 
HETATM    3  N   UNL     1       2.940   0.885  -0.570  1.00  0.00    -0.177 NA
HETATM    4  N   UNL     1       4.157   0.325  -0.685  1.00  0.00    -0.262 N 
HETATM    5  H   UNL     1       4.690   0.447  -1.543  1.00  0.00     0.191 HD
HETATM    6  C   UNL     1       4.543  -0.394   0.417  1.00  0.00     0.137 A 
HETATM    7  C   UNL     1       3.504  -0.277   1.320  1.00  0.00     0.046 A 
ENDROOT
BRANCH   6   8
HETATM    8  N   UNL     1       5.739  -1.083   0.510  1.00  0.00    -0.309 N 
HETATM    9  C   UNL     1       6.669  -1.086  -0.524  1.00  0.00     0.252 C 
HETATM   10  O   UNL     1       6.526  -0.461  -1.575  1.00  0.00    -0.270 OA
HETATM   11  H   UNL     1       5.904  -1.623   1.352  1.00  0.00     0.170 HD
BRANCH   9  12
HETATM   12  C   UNL     1       7.923  -1.930  -0.200  1.00  0.00     0.217 C 
HETATM   13  C   UNL     1       8.858  -1.079   0.659  1.00  0.00     0.050 C 
BRANCH  12  14
HETATM   14  O   UNL     1       8.671  -2.346  -1.340  1.00  0.00    -0.337 OA
BRANCH  14  15
HETATM   15  C   UNL     1       8.025  -3.272  -2.115  1.00  0.00     0.070 A 
HETATM   16  C   UNL     1       7.883  -2.969  -3.468  1.00  0.00     0.037 A 
HETATM   17  C   UNL     1       7.256  -3.873  -4.324  1.00  0.00     0.003 A 
HETATM   18  C   UNL     1       6.786  -5.089  -3.829  1.00  0.00     0.000 A 
HETATM   19  C   UNL     1       6.956  -5.405  -2.481  1.00  0.00     0.003 A 
HETATM   20  C   UNL     1       7.585  -4.501  -1.623  1.00  0.00     0.037 A 
ENDBRANCH  14  15
ENDBRANCH  12  14
ENDBRANCH   9  12
ENDBRANCH   6   8
BRANCH   7  21
HETATM   21  C   UNL     1       3.477  -0.888   2.634  1.00  0.00    -0.020 A 
HETATM   22  C   UNL     1       4.449  -0.559   3.588  1.00  0.00     0.014 A 
HETATM   23  C   UNL     1       4.422  -1.152   4.853  1.00  0.00     0.020 A 
HETATM   24  C   UNL     1       3.420  -2.069   5.165  1.00  0.00     0.011 A 
HETATM   25 BR   UNL     1       3.383  -2.871   6.876  1.00  0.00    -0.051 Br
HETATM   26  C   UNL     1       2.444  -2.398   4.226  1.00  0.00     0.020 A 
HETATM   27  C   UNL     1       2.472  -1.807   2.960  1.00  0.00     0.014 A 
ENDBRANCH   7  21
TORSDOF 5
