REMARK  10 active torsions:
REMARK  status: ('A' for Active; 'I' for Inactive)
REMARK    1  A    between atoms: O_2  and  C_3 
REMARK    2  A    between atoms: C_6  and  C_7 
REMARK    3  A    between atoms: C_7  and  C_8 
REMARK    4  A    between atoms: C_8  and  N_9 
REMARK    5  A    between atoms: N_12  and  C_13 
REMARK    6  A    between atoms: C_16  and  O_17 
REMARK    7  A    between atoms: C_23  and  C_24 
REMARK    8  A    between atoms: C_24  and  C_25 
REMARK       I    between atoms: C_25  and  N_26 
REMARK    9  A    between atoms: N_26  and  C_27 
REMARK   10  A    between atoms: C_30  and  O_31 
ROOT
HETATM    1  N   UNL     1       4.210  -7.565  -1.432  1.00  0.00    -0.319 N 
HETATM    2  C   UNL     1       4.539  -7.808  -2.762  1.00  0.00     0.332 A 
HETATM    3  O   UNL     1       4.446  -6.954  -3.633  1.00  0.00    -0.246 OA
HETATM    4  N   UNL     1       4.910  -9.133  -2.888  1.00  0.00    -0.232 N 
HETATM    5  C   UNL     1       4.784  -9.754  -1.667  1.00  0.00     0.256 A 
HETATM    6  O   UNL     1       4.948 -10.938  -1.381  1.00  0.00    -0.270 OA
HETATM    7  C   UNL     1       4.387  -8.733  -0.599  1.00  0.00     0.190 A 
ENDROOT
BRANCH   7   8
HETATM    8  C   UNL     1       3.143  -9.215   0.137  1.00  0.00     0.138 C 
BRANCH   8   9
HETATM    9  C   UNL     1       3.541  -9.963   1.398  1.00  0.00     0.224 C 
HETATM   10  N   UNL     1       4.068 -11.214   1.151  1.00  0.00    -0.327 N 
HETATM   11  H   UNL     1       4.216 -11.472   0.174  1.00  0.00     0.169 HD
HETATM   12  O   UNL     1       3.402  -9.429   2.494  1.00  0.00    -0.273 OA
BRANCH  10  13
HETATM   13  C   UNL     1       4.533 -12.162   2.084  1.00  0.00     0.034 A 
HETATM   14  C   UNL     1       4.445 -12.014   3.465  1.00  0.00     0.032 A 
HETATM   15  C   UNL     1       4.938 -13.016   4.312  1.00  0.00     0.039 A 
HETATM   16  C   UNL     1       5.524 -14.172   3.793  1.00  0.00     0.068 A 
HETATM   17  C   UNL     1       5.610 -14.324   2.411  1.00  0.00     0.039 A 
HETATM   18  C   UNL     1       5.116 -13.325   1.564  1.00  0.00     0.032 A 
BRANCH  16  19
HETATM   19  O   UNL     1       5.965 -15.065   4.729  1.00  0.00    -0.356 OA
HETATM   20  C   UNL     1       6.591 -16.247   4.245  1.00  0.00     0.210 C 
ENDBRANCH  16  19
ENDBRANCH  10  13
ENDBRANCH   8   9
ENDBRANCH   7   8
BRANCH   1  21
HETATM   21  C   UNL     1       3.691  -6.288  -0.948  1.00  0.00     0.133 C 
BRANCH  21  22
HETATM   22  C   UNL     1       4.448  -5.733   0.261  1.00  0.00     0.058 C 
BRANCH  22  23
HETATM   23  C   UNL     1       3.854  -4.426   0.723  1.00  0.00    -0.057 A 
HETATM   24  C   UNL     1       2.829  -4.410   1.676  1.00  0.00     0.010 A 
HETATM   25  C   UNL     1       2.256  -3.199   2.072  1.00  0.00     0.037 A 
HETATM   26  C   UNL     1       2.694  -1.990   1.529  1.00  0.00     0.068 A 
HETATM   27  C   UNL     1       3.711  -2.001   0.575  1.00  0.00     0.037 A 
HETATM   28  C   UNL     1       4.286  -3.213   0.174  1.00  0.00     0.010 A 
BRANCH  26  29
HETATM   29  O   UNL     1       2.048  -0.882   2.004  1.00  0.00    -0.356 OA
HETATM   30  C   UNL     1       2.517   0.380   1.547  1.00  0.00     0.210 C 
ENDBRANCH  26  29
ENDBRANCH  22  23
ENDBRANCH  21  22
ENDBRANCH   1  21
BRANCH   4  31
HETATM   31  C   UNL     1       5.293  -9.772  -4.108  1.00  0.00     0.047 A 
HETATM   32  C   UNL     1       5.660  -9.033  -5.241  1.00  0.00     0.033 A 
HETATM   33  C   UNL     1       6.037  -9.663  -6.436  1.00  0.00     0.039 A 
HETATM   34  C   UNL     1       6.051 -11.050  -6.541  1.00  0.00     0.068 A 
HETATM   35  C   UNL     1       5.693 -11.804  -5.430  1.00  0.00     0.039 A 
HETATM   36  C   UNL     1       5.324 -11.171  -4.232  1.00  0.00     0.033 A 
BRANCH  34  37
HETATM   37  O   UNL     1       6.429 -11.537  -7.759  1.00  0.00    -0.356 OA
HETATM   38  C   UNL     1       6.388 -12.949  -7.928  1.00  0.00     0.210 C 
ENDBRANCH  34  37
ENDBRANCH   4  31
TORSDOF 10
