REMARK  6 active torsions:
REMARK  status: ('A' for Active; 'I' for Inactive)
REMARK    1  A    between atoms: C_5  and  C_6 
REMARK    2  A    between atoms: C_6  and  N_7 
REMARK       I    between atoms: N_7  and  C_8 
REMARK    3  A    between atoms: C_8  and  C_9 
REMARK    4  A    between atoms: C_10  and  N_11 
REMARK    5  A    between atoms: N_12  and  C_13 
REMARK    6  A    between atoms: C_16  and  N_17 
REMARK       I    between atoms: N_17  and  C_18 
ROOT
HETATM    1  C   UNL     1       8.591   1.056  -1.001  1.00  0.00     0.103 C 
HETATM    2  C   UNL     1       9.149   0.706  -2.229  1.00  0.00     0.105 C 
HETATM    3  N   UNL     1       9.924   1.808  -2.606  1.00  0.00    -0.284 N 
HETATM    4  C   UNL     1       9.216   2.915  -2.152  1.00  0.00     0.166 A 
HETATM    5  C   UNL     1       8.470   2.469  -1.058  1.00  0.00     0.123 A 
HETATM    6  N   UNL     1       7.812   3.346  -0.258  1.00  0.00    -0.242 NA
HETATM    7  C   UNL     1       7.861   4.625  -0.658  1.00  0.00     0.086 A 
HETATM    8  C   UNL     1       8.585   5.045  -1.805  1.00  0.00     0.088 A 
HETATM    9  N   UNL     1       9.306   4.201  -2.561  1.00  0.00    -0.226 NA
HETATM   10  C   UNL     1       7.165   5.574   0.079  1.00  0.00     0.034 A 
HETATM   11  C   UNL     1       7.146   6.920  -0.291  1.00  0.00     0.002 A 
HETATM   12  C   UNL     1       7.840   7.327  -1.422  1.00  0.00     0.002 A 
HETATM   13  C   UNL     1       8.555   6.387  -2.164  1.00  0.00     0.034 A 
ENDROOT
BRANCH   1  14
HETATM   14  C   UNL     1       8.240   0.141   0.078  1.00  0.00     0.257 C 
HETATM   15  N   UNL     1       8.786  -1.117  -0.096  1.00  0.00    -0.352 N 
HETATM   16  H   UNL     1       9.345  -1.236  -0.932  1.00  0.00     0.163 HD
HETATM   17  O   UNL     1       7.647   0.472   1.097  1.00  0.00    -0.267 OA
BRANCH  15  18
HETATM   18  C   UNL     1       9.138  -1.950   1.028  1.00  0.00     0.161 C 
BRANCH  18  19
HETATM   19  C   UNL     1       9.884  -3.181   0.564  1.00  0.00    -0.041 A 
HETATM   20  C   UNL     1      11.036  -3.071  -0.233  1.00  0.00     0.009 A 
HETATM   21  C   UNL     1      11.691  -4.210  -0.708  1.00  0.00     0.007 A 
HETATM   22  C   UNL     1      11.220  -5.484  -0.378  1.00  0.00    -0.062 A 
HETATM   23  C   UNL     1      11.932  -6.704  -0.884  1.00  0.00     0.048 C 
HETATM   24  C   UNL     1      10.108  -5.599   0.463  1.00  0.00     0.007 A 
HETATM   25  C   UNL     1       9.442  -4.459   0.925  1.00  0.00     0.009 A 
ENDBRANCH  18  19
ENDBRANCH  15  18
ENDBRANCH   1  14
BRANCH   2  26
HETATM   26  N   UNL     1       9.134  -0.482  -2.900  1.00  0.00    -0.287 NA
HETATM   27  H   UNL     1       8.327  -1.096  -2.757  1.00  0.00     0.125 HD
HETATM   28  H   UNL     1       9.374  -0.469  -3.894  1.00  0.00     0.125 HD
ENDBRANCH   2  26
BRANCH   3  29
HETATM   29  C   UNL     1      11.285   1.770  -3.069  1.00  0.00     0.042 A 
HETATM   30  C   UNL     1      11.965   0.545  -3.155  1.00  0.00     0.032 A 
HETATM   31  C   UNL     1      13.354   0.494  -3.311  1.00  0.00     0.032 A 
HETATM   32  C   UNL     1      14.102   1.664  -3.367  1.00  0.00     0.034 A 
HETATM   33  C   UNL     1      13.424   2.888  -3.372  1.00  0.00     0.032 A 
HETATM   34  C   UNL     1      12.030   2.944  -3.226  1.00  0.00     0.032 A 
BRANCH  32  35
HETATM   35  N   UNL     1      15.511   1.689  -3.332  1.00  0.00    -0.328 N 
HETATM   36  C   UNL     1      16.360   0.602  -3.212  1.00  0.00     0.218 C 
HETATM   37  C   UNL     1      17.783   1.017  -2.939  1.00  0.00     0.117 C 
HETATM   38  O   UNL     1      16.063  -0.585  -3.306  1.00  0.00    -0.274 OA
HETATM   39  H   UNL     1      15.937   2.607  -3.300  1.00  0.00     0.169 HD
ENDBRANCH  32  35
ENDBRANCH   3  29
TORSDOF 6
