REMARK  6 active torsions:
REMARK  status: ('A' for Active; 'I' for Inactive)
REMARK    1  A    between atoms: C_2  and  N_3 
REMARK    2  A    between atoms: C_7  and  N_8 
REMARK       I    between atoms: N_8  and  C_9 
REMARK       I    between atoms: C_9  and  N_10 
REMARK    3  A    between atoms: N_10  and  C_11 
REMARK    4  A    between atoms: C_11  and  C_12 
REMARK    5  A    between atoms: C_15  and  N_16 
REMARK       I    between atoms: N_16  and  C_17 
REMARK    6  A    between atoms: C_17  and  C_18 
ROOT
HETATM    1  N   UNL     1       4.680  -3.848   0.176  1.00  0.00    -0.338 N 
HETATM    2  C   UNL     1       5.881  -3.581   0.794  1.00  0.00     0.316 C 
HETATM    3  N   UNL     1       6.906  -3.581  -0.114  1.00  0.00    -0.339 N 
HETATM    4  O   UNL     1       6.022  -3.454   1.999  1.00  0.00    -0.247 OA
HETATM    5  H   UNL     1       4.628  -3.351  -0.706  1.00  0.00     0.164 HD
HETATM    6  H   UNL     1       6.723  -3.952  -1.033  1.00  0.00     0.164 HD
ENDROOT
BRANCH   3   7
HETATM    7  C   UNL     1       8.285  -3.624   0.334  1.00  0.00     0.162 C 
BRANCH   7   8
HETATM    8  C   UNL     1       8.704  -4.981   0.862  1.00  0.00    -0.040 A 
HETATM    9  C   UNL     1       8.059  -6.171   0.496  1.00  0.00     0.011 A 
HETATM   10  C   UNL     1       8.431  -7.395   1.063  1.00  0.00     0.030 A 
HETATM   11  C   UNL     1       9.475  -7.460   1.985  1.00  0.00     0.035 A 
HETATM   12  C   UNL     1      10.175  -6.290   2.292  1.00  0.00     0.030 A 
HETATM   13  C   UNL     1       9.791  -5.062   1.742  1.00  0.00     0.011 A 
BRANCH  11  14
HETATM   14  N   UNL     1       9.866  -8.638   2.642  1.00  0.00    -0.321 N 
HETATM   15  C   UNL     1       9.211  -9.858   2.675  1.00  0.00     0.279 C 
HETATM   16  O   UNL     1       8.154 -10.110   2.103  1.00  0.00    -0.265 OA
HETATM   17  H   UNL     1      10.686  -8.586   3.240  1.00  0.00     0.169 HD
BRANCH  15  18
HETATM   18  C   UNL     1       9.891 -10.828   3.516  1.00  0.00     0.142 A 
HETATM   19  O   UNL     1      11.058 -10.468   4.144  1.00  0.00    -0.317 OA
HETATM   20  C   UNL     1      11.470 -11.540   4.869  1.00  0.00     0.143 A 
HETATM   21  C   UNL     1      10.591 -12.586   4.725  1.00  0.00     0.027 A 
HETATM   22  C   UNL     1       9.574 -12.130   3.852  1.00  0.00     0.045 A 
ENDBRANCH  15  18
ENDBRANCH  11  14
ENDBRANCH   7   8
ENDBRANCH   3   7
BRANCH   1  23
HETATM   23  C   UNL     1       3.411  -3.956   0.903  1.00  0.00     0.089 C 
HETATM   24  C   UNL     1       3.450  -4.758   2.206  1.00  0.00     0.053 C 
HETATM   25  C   UNL     1       3.855  -6.201   1.969  1.00  0.00     0.237 C 
HETATM   26  N   UNL     1       2.860  -6.876   1.025  1.00  0.00    -0.067 N 
HETATM   27  H   UNL     1       1.946  -6.870   1.496  1.00  0.00     0.280 HD
HETATM   28  C   UNL     1       2.720  -6.088  -0.267  1.00  0.00     0.237 C 
HETATM   29  C   UNL     1       2.378  -4.623  -0.005  1.00  0.00     0.053 C 
BRANCH  26  30
HETATM   30  C   UNL     1       3.224  -8.357   0.780  1.00  0.00     0.180 C 
HETATM   31  C   UNL     1       2.214  -9.003  -0.172  1.00  0.00     0.039 C 
HETATM   32  C   UNL     1       3.222  -9.128   2.102  1.00  0.00     0.039 C 
ENDBRANCH  26  30
ENDBRANCH   1  23
TORSDOF 6
