REMARK  8 active torsions:
REMARK  status: ('A' for Active; 'I' for Inactive)
REMARK    1  A    between atoms: C_2  and  N_3 
REMARK    2  A    between atoms: N_3  and  N_4 
REMARK       I    between atoms: N_4  and  C_5 
REMARK    3  A    between atoms: C_5  and  C_6 
REMARK       I    between atoms: C_6  and  N_7 
REMARK    4  A    between atoms: N_7  and  C_8 
REMARK    5  A    between atoms: C_16  and  C_17 
REMARK       I    between atoms: C_17  and  N_18 
REMARK    6  A    between atoms: N_18  and  C_19 
REMARK    7  A    between atoms: C_22  and  N_23 
REMARK    8  A    between atoms: N_23  and  C_24 
ROOT
HETATM    1  C   UNL     1       0.173   0.243  -0.185  1.00  0.00     0.063 C 
HETATM    2  C   UNL     1       1.566   0.842  -0.217  1.00  0.00     0.007 C 
HETATM    3  C   UNL     1       2.519   0.174  -0.902  1.00  0.00     0.094 C 
ENDROOT
BRANCH   3   4
HETATM    4  C   UNL     1       3.970   0.514  -0.983  1.00  0.00     0.247 C 
HETATM    5  N   UNL     1       4.578  -0.098  -2.064  1.00  0.00    -0.324 N 
HETATM    6  H   UNL     1       3.978  -0.500  -2.772  1.00  0.00     0.169 HD
HETATM    7  O   UNL     1       4.507   1.271  -0.185  1.00  0.00    -0.268 OA
BRANCH   5   8
HETATM    8  C   UNL     1       5.958  -0.100  -2.354  1.00  0.00     0.035 A 
HETATM    9  C   UNL     1       6.939   0.237  -1.422  1.00  0.00     0.031 A 
HETATM   10  C   UNL     1       8.293   0.212  -1.774  1.00  0.00     0.026 A 
HETATM   11  C   UNL     1       8.693  -0.103  -3.078  1.00  0.00     0.012 A 
HETATM   12  C   UNL     1       7.710  -0.491  -3.994  1.00  0.00     0.026 A 
HETATM   13  C   UNL     1       6.356  -0.498  -3.634  1.00  0.00     0.031 A 
BRANCH  11  14
HETATM   14  N   UNL     1      10.077  -0.097  -3.406  1.00  0.00    -0.260 NA
HETATM   15  H   UNL     1      10.572   0.406  -2.670  1.00  0.00     0.134 HD
BRANCH  14  16
HETATM   16  C   UNL     1      10.562   0.376  -4.654  1.00  0.00     0.012 A 
HETATM   17  C   UNL     1      10.728  -0.496  -5.732  1.00  0.00     0.024 A 
HETATM   18  C   UNL     1      11.153  -0.013  -6.973  1.00  0.00     0.002 A 
HETATM   19  C   UNL     1      11.400   1.349  -7.145  1.00  0.00     0.000 A 
HETATM   20  C   UNL     1      11.218   2.229  -6.080  1.00  0.00     0.002 A 
HETATM   21  C   UNL     1      10.795   1.746  -4.841  1.00  0.00     0.024 A 
ENDBRANCH  14  16
ENDBRANCH  11  14
ENDBRANCH   5   8
ENDBRANCH   3   4
BRANCH   2  22
HETATM   22  N   UNL     1       1.682   2.033   0.491  1.00  0.00    -0.207 NA
HETATM   23  H   UNL     1       0.772   2.405   0.788  1.00  0.00     0.152 HD
BRANCH  22  24
HETATM   24  N   UNL     1       2.492   3.078   0.005  1.00  0.00    -0.279 N 
HETATM   25  C   UNL     1       1.857   4.147  -0.601  1.00  0.00     0.323 C 
HETATM   26  O   UNL     1       0.654   4.361  -0.546  1.00  0.00    -0.261 OA
HETATM   27  H   UNL     1       3.470   2.841  -0.191  1.00  0.00     0.184 HD
BRANCH  25  28
HETATM   28  C   UNL     1       2.797   5.021  -1.437  1.00  0.00     0.311 C 
HETATM   29  N   UNL     1       2.655   6.386  -1.476  1.00  0.00    -0.348 N 
HETATM   30  H   UNL     1       3.351   6.809  -2.078  1.00  0.00     0.163 HD
HETATM   31  O   UNL     1       3.695   4.476  -2.075  1.00  0.00    -0.262 OA
BRANCH  29  32
HETATM   32  C   UNL     1       1.790   7.306  -0.733  1.00  0.00     0.084 C 
HETATM   33  C   UNL     1       0.319   7.302  -1.188  1.00  0.00     0.025 C 
HETATM   34  C   UNL     1      -0.753   7.102  -0.117  1.00  0.00     0.002 C 
HETATM   35  C   UNL     1      -0.346   7.615   1.252  1.00  0.00     0.000 C 
HETATM   36  C   UNL     1       0.949   6.953   1.690  1.00  0.00     0.002 C 
HETATM   37  C   UNL     1       2.098   7.334   0.771  1.00  0.00     0.025 C 
ENDBRANCH  29  32
ENDBRANCH  25  28
ENDBRANCH  22  24
ENDBRANCH   2  22
TORSDOF 8
