REMARK  4 active torsions:
REMARK  status: ('A' for Active; 'I' for Inactive)
REMARK    1  A    between atoms: C_4  and  S_5 
REMARK    2  A    between atoms: S_5  and  C_6 
REMARK    3  A    between atoms: C_6  and  C_7 
REMARK    4  A    between atoms: C_23  and  N_24 
ROOT
HETATM    1  C   UNL     1       7.762   3.752   0.113  1.00  0.00    -0.029 C 
HETATM    2  C   UNL     1       9.259   3.618   0.042  1.00  0.00     0.016 A 
HETATM    3  C   UNL     1       9.969   4.827  -0.093  1.00  0.00     0.091 A 
HETATM    4  C   UNL     1      11.346   4.891  -0.284  1.00  0.00     0.039 A 
HETATM    5  C   UNL     1      12.076   3.719  -0.333  1.00  0.00     0.015 A 
HETATM    6  C   UNL     1      11.451   2.485  -0.147  1.00  0.00    -0.025 A 
HETATM    7  C   UNL     1      10.041   2.398   0.076  1.00  0.00    -0.012 A 
HETATM    8  C   UNL     1      12.266   1.339  -0.170  1.00  0.00     0.012 A 
HETATM    9  C   UNL     1      11.740   0.073   0.049  1.00  0.00     0.001 A 
HETATM   10  C   UNL     1      10.391  -0.055   0.318  1.00  0.00     0.001 A 
HETATM   11  C   UNL     1       9.570   1.080   0.342  1.00  0.00     0.013 A 
HETATM   12  O   UNL     1       9.360   6.095  -0.010  1.00  0.00    -0.275 OA
HETATM   13  C   UNL     1       8.026   6.223   0.289  1.00  0.00     0.288 C 
HETATM   14  O   UNL     1       7.496   7.306   0.504  1.00  0.00    -0.260 OA
HETATM   15  C   UNL     1       7.246   4.986   0.271  1.00  0.00     0.091 C 
ENDROOT
BRANCH   1  16
HETATM   16  C   UNL     1       6.875   2.532  -0.029  1.00  0.00     0.122 C 
BRANCH  16  17
HETATM   17  S   UNL     1       5.158   2.831  -0.550  1.00  0.00    -0.085 SA
BRANCH  17  18
HETATM   18  C   UNL     1       4.495   1.200  -0.304  1.00  0.00     0.190 A 
HETATM   19  N   UNL     1       3.161   1.112  -0.183  1.00  0.00    -0.228 NA
HETATM   20  C   UNL     1       2.649  -0.117   0.021  1.00  0.00     0.036 A 
HETATM   21  C   UNL     1       1.163  -0.231   0.173  1.00  0.00     0.070 C 
HETATM   22  C   UNL     1       3.446  -1.240   0.090  1.00  0.00     0.071 A 
HETATM   23  C   UNL     1       4.799  -1.046  -0.068  1.00  0.00     0.105 A 
HETATM   24  N   UNL     1       5.343   0.160  -0.254  1.00  0.00    -0.211 NA
BRANCH  23  25
HETATM   25  N   UNL     1       5.681  -2.123   0.012  1.00  0.00    -0.287 NA
HETATM   26  H   UNL     1       6.616  -1.778  -0.185  1.00  0.00     0.125 HD
HETATM   27  H   UNL     1       5.419  -2.876  -0.615  1.00  0.00     0.125 HD
ENDBRANCH  23  25
ENDBRANCH  17  18
ENDBRANCH  16  17
ENDBRANCH   1  16
TORSDOF 4
