REMARK  7 active torsions:
REMARK  status: ('A' for Active; 'I' for Inactive)
REMARK    1  A    between atoms: C_2  and  N_3 
REMARK       I    between atoms: N_3  and  C_4 
REMARK    2  A    between atoms: C_4  and  C_5 
REMARK    3  A    between atoms: N_8  and  C_10 
REMARK    4  A    between atoms: C_10  and  N_11 
REMARK    5  A    between atoms: C_13  and  C_14 
REMARK    6  A    between atoms: C_14  and  N_15 
REMARK    7  A    between atoms: N_22  and  C_23 
ROOT
HETATM    1  N   UNL     1       2.129  -0.023  -3.802  1.00  0.00    -0.216 N 
HETATM    2  N   UNL     1       1.963  -1.391  -3.707  1.00  0.00    -0.153 NA
HETATM    3  C   UNL     1       1.275  -1.715  -4.772  1.00  0.00     0.160 A 
HETATM    4  N   UNL     1       0.981  -0.676  -5.593  1.00  0.00    -0.272 N 
HETATM    5  C   UNL     1       1.507   0.454  -4.972  1.00  0.00     0.204 A 
HETATM    6  S   UNL     1       1.565   2.042  -5.472  1.00  0.00    -0.038 SA
ENDROOT
BRANCH   1   7
HETATM    7  C   UNL     1       2.703   0.753  -2.713  1.00  0.00     0.388 C 
BRANCH   7   8
HETATM    8  N   UNL     1       3.998   1.405  -3.111  1.00  0.00    -0.053 N 
HETATM    9  C   UNL     1       4.474   2.299  -1.990  1.00  0.00     0.237 C 
HETATM   10  C   UNL     1       5.773   2.996  -2.372  1.00  0.00     0.042 C 
HETATM   11  C   UNL     1       6.862   1.992  -2.749  1.00  0.00     0.081 C 
HETATM   12  C   UNL     1       6.357   1.076  -3.867  1.00  0.00     0.042 C 
HETATM   13  C   UNL     1       5.027   0.398  -3.557  1.00  0.00     0.237 C 
HETATM   14  H   UNL     1       3.774   2.006  -3.917  1.00  0.00     0.281 HD
BRANCH  11  15
HETATM   15  C   UNL     1       7.270   1.196  -1.514  1.00  0.00     0.221 C 
HETATM   16  N   UNL     1       8.148   1.841  -0.682  1.00  0.00    -0.361 N 
HETATM   17  H   UNL     1       8.662   2.647  -1.020  1.00  0.00     0.162 HD
HETATM   18  O   UNL     1       6.747   0.117  -1.250  1.00  0.00    -0.273 OA
BRANCH  16  19
HETATM   19  C   UNL     1       8.640   1.219   0.535  1.00  0.00     0.118 C 
HETATM   20  C   UNL     1       9.757   0.231   0.253  1.00  0.00     0.026 C 
ENDBRANCH  16  19
ENDBRANCH  11  15
ENDBRANCH   7   8
ENDBRANCH   1   7
BRANCH   3  21
HETATM   21  C   UNL     1       0.797  -3.146  -5.004  1.00  0.00     0.315 C 
BRANCH  21  22
HETATM   22  N   UNL     1       0.769  -3.980  -3.718  1.00  0.00    -0.064 N 
HETATM   23  H   UNL     1       1.657  -3.777  -3.234  1.00  0.00     0.280 HD
HETATM   24  C   UNL     1      -0.349  -3.579  -2.780  1.00  0.00     0.235 C 
HETATM   25  C   UNL     1      -0.196  -4.338  -1.469  1.00  0.00     0.028 C 
HETATM   26  C   UNL     1      -0.181  -5.846  -1.692  1.00  0.00     0.003 C 
HETATM   27  C   UNL     1       0.877  -6.244  -2.715  1.00  0.00     0.028 C 
HETATM   28  C   UNL     1       0.734  -5.465  -4.014  1.00  0.00     0.235 C 
ENDBRANCH  21  22
ENDBRANCH   3  21
BRANCH   4  29
HETATM   29  C   UNL     1       0.305  -0.743  -6.833  1.00  0.00     0.043 A 
HETATM   30  C   UNL     1      -0.724   0.155  -7.142  1.00  0.00     0.030 A 
HETATM   31  C   UNL     1      -1.399   0.071  -8.362  1.00  0.00     0.002 A 
HETATM   32  C   UNL     1      -1.051  -0.908  -9.288  1.00  0.00     0.000 A 
HETATM   33  C   UNL     1      -0.025  -1.801  -9.000  1.00  0.00     0.002 A 
HETATM   34  C   UNL     1       0.651  -1.721  -7.779  1.00  0.00     0.030 A 
ENDBRANCH   4  29
TORSDOF 7
