REMARK  2 active torsions:
REMARK  status: ('A' for Active; 'I' for Inactive)
REMARK    1  A    between atoms: S_2  and  N_3 
REMARK    2  A    between atoms: C_10  and  N_11 
ROOT
HETATM    1  N   UNL     1       3.442  -1.366   0.283  1.00  0.00    -0.311 N 
HETATM    2  C   UNL     1       4.218  -1.575   1.521  1.00  0.00     0.138 C 
HETATM    3  C   UNL     1       3.262  -1.686   2.700  1.00  0.00     0.059 C 
HETATM    4  C   UNL     1       2.213  -2.810   2.509  1.00  0.00     0.073 C 
HETATM    5  O   UNL     1       2.925  -4.057   2.567  1.00  0.00    -0.339 OA
HETATM    6  C   UNL     1       2.199  -5.186   2.824  1.00  0.00     0.078 A 
HETATM    7  C   UNL     1       0.927  -5.182   3.405  1.00  0.00     0.005 A 
HETATM    8  C   UNL     1       0.272  -3.895   3.797  1.00  0.00     0.222 C 
HETATM    9  C   UNL     1       1.221  -2.707   3.686  1.00  0.00     0.076 C 
HETATM   10  C   UNL     1       2.825  -6.387   2.494  1.00  0.00     0.037 A 
HETATM   11  C   UNL     1       2.179  -7.600   2.723  1.00  0.00     0.003 A 
HETATM   12  C   UNL     1       0.911  -7.613   3.297  1.00  0.00     0.001 A 
HETATM   13  C   UNL     1       0.288  -6.412   3.643  1.00  0.00     0.012 A 
HETATM   14  C   UNL     1       1.537  -2.689   1.123  1.00  0.00     0.059 C 
HETATM   15  C   UNL     1       2.542  -2.492  -0.017  1.00  0.00     0.138 C 
ENDROOT
BRANCH   8  16
HETATM   16  N   UNL     1      -0.968  -3.634   3.013  1.00  0.00    -0.071 N 
HETATM   17  H   UNL     1      -0.805  -3.678   2.001  1.00  0.00     0.275 HD
HETATM   18  H   UNL     1      -1.681  -4.344   3.223  1.00  0.00     0.275 HD
HETATM   19  H   UNL     1      -1.378  -2.717   3.232  1.00  0.00     0.275 HD
ENDBRANCH   8  16
BRANCH   1  20
HETATM   20  S   UNL     1       2.922   0.206  -0.086  1.00  0.00     0.224 S 
HETATM   21  C   UNL     1       3.391   0.329  -1.798  1.00  0.00     0.186 C 
HETATM   22  O   UNL     1       3.725   1.141   0.670  1.00  0.00    -0.206 OA
HETATM   23  O   UNL     1       1.476   0.216   0.011  1.00  0.00    -0.206 OA
ENDBRANCH   1  20
TORSDOF 2
