REMARK  9 active torsions:
REMARK  status: ('A' for Active; 'I' for Inactive)
REMARK    1  A    between atoms: C_6  and  N_7 
REMARK    2  A    between atoms: N_7  and  C_8 
REMARK    3  A    between atoms: C_10  and  S_11 
REMARK    4  A    between atoms: S_11  and  C_12 
REMARK    5  A    between atoms: C_15  and  N_16 
REMARK       I    between atoms: N_16  and  C_17 
REMARK    6  A    between atoms: C_17  and  C_18 
REMARK    7  A    between atoms: C_25  and  N_26 
REMARK    8  A    between atoms: C_34  and  C_35 
REMARK    9  A    between atoms: C_35  and  O_36 
ROOT
HETATM    1  C   UNL     1       5.311  -2.879  -0.244  1.00  0.00     0.152 A 
HETATM    2  N   UNL     1       6.317  -3.706  -0.582  1.00  0.00    -0.204 NA
HETATM    3  C   UNL     1       6.208  -5.006  -0.297  1.00  0.00     0.196 A 
HETATM    4  N   UNL     1       5.130  -5.560   0.273  1.00  0.00    -0.209 NA
HETATM    5  C   UNL     1       4.090  -4.759   0.575  1.00  0.00     0.128 A 
HETATM    6  C   UNL     1       4.153  -3.381   0.347  1.00  0.00     0.125 A 
ENDROOT
BRANCH   3   7
HETATM    7  S   UNL     1       7.625  -5.996  -0.693  1.00  0.00    -0.050 SA
BRANCH   7   8
HETATM    8  C   UNL     1       7.053  -7.679  -0.730  1.00  0.00     0.008 A 
HETATM    9  C   UNL     1       5.862  -8.067  -1.349  1.00  0.00     0.021 A 
HETATM   10  C   UNL     1       5.488  -9.415  -1.400  1.00  0.00     0.031 A 
HETATM   11  C   UNL     1       6.321 -10.401  -0.871  1.00  0.00     0.034 A 
HETATM   12  C   UNL     1       7.530 -10.022  -0.284  1.00  0.00     0.031 A 
HETATM   13  C   UNL     1       7.887  -8.672  -0.203  1.00  0.00     0.021 A 
BRANCH  11  14
HETATM   14  N   UNL     1       6.036 -11.777  -0.946  1.00  0.00    -0.327 N 
HETATM   15  C   UNL     1       4.820 -12.352  -1.242  1.00  0.00     0.226 C 
HETATM   16  O   UNL     1       3.747 -11.774  -1.357  1.00  0.00    -0.273 OA
HETATM   17  H   UNL     1       6.800 -12.404  -0.736  1.00  0.00     0.169 HD
BRANCH  15  18
HETATM   18  C   UNL     1       4.857 -13.832  -1.426  1.00  0.00     0.078 A 
HETATM   19  C   UNL     1       5.848 -14.766  -0.772  1.00  0.00     0.015 A 
HETATM   20  C   UNL     1       4.432 -14.721  -0.279  1.00  0.00     0.015 A 
ENDBRANCH  15  18
ENDBRANCH  11  14
ENDBRANCH   7   8
ENDBRANCH   3   7
BRANCH   1  21
HETATM   21  N   UNL     1       5.446  -1.514  -0.555  1.00  0.00    -0.323 N 
HETATM   22  H   UNL     1       5.029  -0.890   0.126  1.00  0.00     0.169 HD
BRANCH  21  23
HETATM   23  C   UNL     1       6.290  -0.884  -1.397  1.00  0.00     0.151 A 
HETATM   24  N   UNL     1       6.455   0.440  -1.365  1.00  0.00    -0.157 NA
HETATM   25  N   UNL     1       7.326   0.690  -2.357  1.00  0.00    -0.281 N 
HETATM   26  C   UNL     1       7.705  -0.424  -3.049  1.00  0.00     0.027 A 
HETATM   27  H   UNL     1       7.610   1.652  -2.513  1.00  0.00     0.189 HD
HETATM   28  C   UNL     1       8.628  -0.378  -4.202  1.00  0.00     0.070 C 
HETATM   29  C   UNL     1       7.045  -1.468  -2.439  1.00  0.00     0.078 A 
ENDBRANCH  21  23
ENDBRANCH   1  21
BRANCH   5  30
HETATM   30  N   UNL     1       2.963  -5.383   1.135  1.00  0.00    -0.264 NA
HETATM   31  C   UNL     1       1.735  -5.321   0.320  1.00  0.00     0.125 C 
HETATM   32  C   UNL     1       0.521  -5.648   1.214  1.00  0.00     0.249 C 
HETATM   33  N   UNL     1       0.693  -7.021   1.867  1.00  0.00    -0.073 N 
HETATM   34  H   UNL     1       0.734  -7.718   1.112  1.00  0.00     0.279 HD
HETATM   35  C   UNL     1      -0.472  -7.363   2.745  1.00  0.00     0.269 C 
HETATM   36  C   UNL     1       2.021  -7.109   2.627  1.00  0.00     0.249 C 
HETATM   37  C   UNL     1       3.209  -6.717   1.720  1.00  0.00     0.125 C 
ENDBRANCH   5  30
BRANCH   6  38
HETATM   38  C   UNL     1       3.061  -2.497   0.800  1.00  0.00     0.300 C 
HETATM   39  O   UNL     1       2.475  -2.610   1.864  1.00  0.00    -0.259 OA
BRANCH  38  40
HETATM   40  O   UNL     1       2.753  -1.620  -0.185  1.00  0.00    -0.322 OA
HETATM   41  C   UNL     1       1.722  -0.670   0.109  1.00  0.00     0.213 C 
ENDBRANCH  38  40
ENDBRANCH   6  38
TORSDOF 9
