REMARK  3 active torsions:
REMARK  status: ('A' for Active; 'I' for Inactive)
REMARK    1  A    between atoms: C_3  and  N_4 
REMARK    2  A    between atoms: C_14  and  N_15 
REMARK       I    between atoms: N_15  and  C_16 
REMARK    3  A    between atoms: C_16  and  C_17 
ROOT
HETATM    1  N   UNL     1       2.586   2.363  -0.365  1.00  0.00    -0.237 N 
HETATM    2  N   UNL     1       1.254   2.479  -0.627  1.00  0.00    -0.179 NA
HETATM    3  C   UNL     1       0.988   3.780  -0.559  1.00  0.00     0.150 A 
HETATM    4  C   UNL     1       2.123   4.539  -0.257  1.00  0.00     0.008 A 
HETATM    5  C   UNL     1       3.151   3.617  -0.161  1.00  0.00     0.047 A 
HETATM    6  C   UNL     1       4.531   3.938   0.321  1.00  0.00     0.069 C 
HETATM    7  C   UNL     1       4.822   5.469   0.225  1.00  0.00    -0.040 C 
HETATM    8  C   UNL     1       5.210   5.842  -1.221  1.00  0.00     0.015 C 
HETATM    9  C   UNL     1       6.027   5.796   1.130  1.00  0.00     0.015 C 
HETATM   10  C   UNL     1       3.598   6.306   0.714  1.00  0.00     0.039 C 
HETATM   11  C   UNL     1       2.256   5.996   0.008  1.00  0.00     0.122 C 
ENDROOT
BRANCH  11  12
HETATM   12  N   UNL     1       2.106   6.700  -1.250  1.00  0.00    -0.347 N 
HETATM   13  C   UNL     1       1.734   8.019  -1.276  1.00  0.00     0.270 C 
HETATM   14  O   UNL     1       1.521   8.686  -0.268  1.00  0.00    -0.266 OA
HETATM   15  H   UNL     1       2.293   6.195  -2.104  1.00  0.00     0.163 HD
BRANCH  13  16
HETATM   16  C   UNL     1       1.581   8.630  -2.621  1.00  0.00     0.120 A 
HETATM   17  N   UNL     1       1.173   9.941  -2.750  1.00  0.00    -0.303 N 
HETATM   18  C   UNL     1       1.091  10.275  -4.102  1.00  0.00     0.324 A 
HETATM   19  H   UNL     1       0.959  10.555  -1.978  1.00  0.00     0.171 HD
HETATM   20  O   UNL     1       0.762  11.336  -4.594  1.00  0.00    -0.247 OA
HETATM   21  N   UNL     1       1.474   9.105  -4.773  1.00  0.00    -0.316 N 
HETATM   22  C   UNL     1       1.763   8.126  -3.853  1.00  0.00     0.128 A 
HETATM   23  H   UNL     1       1.509   9.035  -5.779  1.00  0.00     0.170 HD
ENDBRANCH  13  16
ENDBRANCH  11  12
BRANCH   1  24
HETATM   24  C   UNL     1       3.198   1.075  -0.334  1.00  0.00     0.064 A 
HETATM   25  C   UNL     1       2.521  -0.052   0.189  1.00  0.00    -0.033 A 
HETATM   26  C   UNL     1       1.142   0.004   0.795  1.00  0.00     0.050 C 
HETATM   27  C   UNL     1       3.171  -1.301   0.172  1.00  0.00     0.009 A 
HETATM   28  C   UNL     1       4.461  -1.436  -0.340  1.00  0.00     0.001 A 
HETATM   29  C   UNL     1       5.117  -0.329  -0.863  1.00  0.00     0.002 A 
HETATM   30  C   UNL     1       4.488   0.918  -0.867  1.00  0.00     0.032 A 
ENDBRANCH   1  24
TORSDOF 3
