REMARK  4 active torsions:
REMARK  status: ('A' for Active; 'I' for Inactive)
REMARK    1  A    between atoms: C_4  and  N_5 
REMARK    2  A    between atoms: N_5  and  C_6 
REMARK    3  A    between atoms: C_6  and  C_7 
REMARK    4  A    between atoms: N_17  and  N_19 
ROOT
HETATM    1  C   UNL     1       4.555   3.909  -0.084  1.00  0.00     0.145 C 
HETATM    2  N   UNL     1       5.456   4.871  -0.326  1.00  0.00    -0.307 N 
HETATM    3  H   UNL     1       6.401   4.549  -0.530  1.00  0.00     0.182 HD
ENDROOT
BRANCH   1   4
HETATM    4  N   UNL     1       5.040   2.562  -0.163  1.00  0.00    -0.339 N 
HETATM    5  H   UNL     1       4.494   1.889   0.364  1.00  0.00     0.167 HD
BRANCH   4   6
HETATM    6  C   UNL     1       6.161   2.010  -0.810  1.00  0.00     0.040 A 
HETATM    7  C   UNL     1       6.628   2.555  -2.018  1.00  0.00     0.036 A 
HETATM    8  C   UNL     1       7.779   2.064  -2.648  1.00  0.00    -0.060 A 
HETATM    9  C   UNL     1       8.231   2.628  -3.963  1.00  0.00     0.048 C 
HETATM   10  C   UNL     1       8.461   0.994  -2.069  1.00  0.00     0.007 A 
HETATM   11  C   UNL     1       8.014   0.441  -0.869  1.00  0.00     0.009 A 
HETATM   12  C   UNL     1       6.874   0.947  -0.223  1.00  0.00    -0.035 A 
HETATM   13  C   UNL     1       6.443   0.322   1.077  1.00  0.00     0.050 C 
ENDBRANCH   4   6
ENDBRANCH   1   4
BRANCH   1  14
HETATM   14  C   UNL     1       3.122   4.120   0.296  1.00  0.00     0.102 A 
HETATM   15  N   UNL     1       2.797   5.354   0.773  1.00  0.00    -0.245 NA
HETATM   16  C   UNL     1       1.525   5.604   1.141  1.00  0.00     0.068 A 
HETATM   17  C   UNL     1       0.504   4.643   1.021  1.00  0.00    -0.007 A 
HETATM   18  C   UNL     1       1.195   6.851   1.656  1.00  0.00     0.032 A 
HETATM   19  C   UNL     1       0.844   3.391   0.500  1.00  0.00     0.016 A 
HETATM   20  C   UNL     1      -0.811   4.950   1.413  1.00  0.00     0.014 A 
HETATM   21  C   UNL     1       2.160   3.127   0.131  1.00  0.00     0.036 A 
HETATM   22  C   UNL     1      -1.116   6.209   1.925  1.00  0.00     0.001 A 
HETATM   23  C   UNL     1      -0.111   7.162   2.048  1.00  0.00     0.002 A 
ENDBRANCH   1  14
BRANCH   2  24
HETATM   24  N   UNL     1       5.148   6.207  -0.166  1.00  0.00    -0.248 NA
HETATM   25  H   UNL     1       4.137   6.342  -0.035  1.00  0.00     0.143 HD
HETATM   26  H   UNL     1       5.487   6.759  -0.953  1.00  0.00     0.143 HD
ENDBRANCH   2  24
TORSDOF 4
