REMARK  2 active torsions:
REMARK  status: ('A' for Active; 'I' for Inactive)
REMARK    1  A    between atoms: C_7  and  C_8 
REMARK    2  A    between atoms: C_8  and  O_9 
ROOT
HETATM    1  C   UNL     1       2.368  -2.226  -0.021  1.00  0.00     0.199 A 
HETATM    2  C   UNL     1       3.172  -3.443  -0.586  1.00  0.00     0.266 A 
HETATM    3  O   UNL     1       3.494  -3.646  -1.748  1.00  0.00    -0.269 OA
HETATM    4  N   UNL     1       3.413  -4.314   0.476  1.00  0.00    -0.323 N 
HETATM    5  C   UNL     1       2.869  -3.829   1.656  1.00  0.00     0.045 A 
HETATM    6  C   UNL     1       2.249  -2.594   1.438  1.00  0.00     0.019 A 
HETATM    7  C   UNL     1       2.890  -4.444   2.891  1.00  0.00     0.032 A 
HETATM    8  C   UNL     1       2.258  -3.785   3.949  1.00  0.00     0.026 A 
HETATM    9  C   UNL     1       1.628  -2.545   3.744  1.00  0.00     0.034 A 
HETATM   10 CL   UNL     1       0.852  -1.763   5.067  1.00  0.00    -0.084 Cl
HETATM   11  C   UNL     1       1.613  -1.940   2.485  1.00  0.00     0.037 A 
HETATM   12  H   UNL     1       3.888  -5.197   0.362  1.00  0.00     0.169 HD
ENDROOT
BRANCH   1  13
HETATM   13  C   UNL     1       3.084  -0.896  -0.098  1.00  0.00     0.025 A 
HETATM   14  C   UNL     1       2.482   0.353  -0.273  1.00  0.00     0.016 A 
HETATM   15  C   UNL     1       1.054   0.746  -0.424  1.00  0.00     0.069 C 
HETATM   16  N   UNL     1       3.468   1.304  -0.299  1.00  0.00    -0.359 N 
HETATM   17  H   UNL     1       3.316   2.296  -0.416  1.00  0.00     0.166 HD
HETATM   18  C   UNL     1       4.702   0.730  -0.139  1.00  0.00     0.043 A 
HETATM   19  C   UNL     1       4.506  -0.645  -0.005  1.00  0.00     0.003 A 
HETATM   20  C   UNL     1       5.965   1.335  -0.107  1.00  0.00     0.030 A 
HETATM   21  C   UNL     1       5.654  -1.450   0.179  1.00  0.00     0.014 A 
HETATM   22  C   UNL     1       6.926  -0.863   0.210  1.00  0.00     0.001 A 
HETATM   23  C   UNL     1       7.078   0.511   0.068  1.00  0.00     0.002 A 
ENDBRANCH   1  13
BRANCH   1  24
HETATM   24  O   UNL     1       1.075  -2.204  -0.619  1.00  0.00    -0.371 OA
HETATM   25  H   UNL     1       1.254  -2.088  -1.569  1.00  0.00     0.212 HD
ENDBRANCH   1  24
TORSDOF 2
