REMARK  7 active torsions:
REMARK  status: ('A' for Active; 'I' for Inactive)
REMARK    1  A    between atoms: C_2  and  O_3 
REMARK    2  A    between atoms: O_3  and  C_4 
REMARK    3  A    between atoms: C_7  and  C_8 
REMARK    4  A    between atoms: N_9  and  N_10 
REMARK    5  A    between atoms: C_21  and  C_22 
REMARK       I    between atoms: C_22  and  N_23 
REMARK    6  A    between atoms: N_23  and  C_24 
REMARK    7  A    between atoms: C_31  and  N_32 
ROOT
HETATM    1  N   UNL     1      10.221   1.599  -0.736  1.00  0.00    -0.197 N 
HETATM    2  C   UNL     1      11.263   0.751  -1.094  1.00  0.00     0.183 A 
HETATM    3  C   UNL     1      11.012   0.333  -2.394  1.00  0.00     0.125 A 
HETATM    4  N   UNL     1      11.765  -0.622  -3.000  1.00  0.00    -0.242 NA
HETATM    5  C   UNL     1      12.808  -1.045  -2.273  1.00  0.00     0.086 A 
HETATM    6  C   UNL     1      13.072  -0.582  -0.955  1.00  0.00     0.088 A 
HETATM    7  N   UNL     1      12.280   0.304  -0.319  1.00  0.00    -0.225 NA
HETATM    8  C   UNL     1      13.669  -1.965  -2.858  1.00  0.00     0.034 A 
HETATM    9  C   UNL     1      14.800  -2.432  -2.190  1.00  0.00     0.002 A 
HETATM   10  C   UNL     1      15.071  -1.972  -0.909  1.00  0.00     0.002 A 
HETATM   11  C   UNL     1      14.204  -1.057  -0.304  1.00  0.00     0.034 A 
HETATM   12  C   UNL     1       9.888   1.033  -2.885  1.00  0.00     0.110 C 
HETATM   13  C   UNL     1       9.570   1.984  -1.928  1.00  0.00     0.143 C 
ENDROOT
BRANCH   1  14
HETATM   14  N   UNL     1       9.610   1.567   0.501  1.00  0.00    -0.176 NA
HETATM   15  C   UNL     1       8.975   2.645   0.819  1.00  0.00     0.150 C 
BRANCH  15  16
HETATM   16  C   UNL     1       7.686   2.583   1.538  1.00  0.00    -0.017 A 
HETATM   17  C   UNL     1       6.972   1.377   1.543  1.00  0.00     0.016 A 
HETATM   18  C   UNL     1       5.612   1.375   1.852  1.00  0.00     0.037 A 
HETATM   19  C   UNL     1       4.970   2.577   2.151  1.00  0.00     0.068 A 
HETATM   20  C   UNL     1       5.706   3.760   2.250  1.00  0.00     0.037 A 
HETATM   21  C   UNL     1       7.065   3.771   1.924  1.00  0.00     0.016 A 
BRANCH  19  22
HETATM   22  O   UNL     1       3.618   2.682   2.340  1.00  0.00    -0.352 OA
BRANCH  22  23
HETATM   23  C   UNL     1       2.856   1.958   1.363  1.00  0.00     0.171 C 
HETATM   24  C   UNL     1       1.490   2.608   1.242  1.00  0.00     0.034 C 
ENDBRANCH  22  23
ENDBRANCH  19  22
ENDBRANCH  15  16
ENDBRANCH   1  14
BRANCH  13  25
HETATM   25  N   UNL     1       8.629   2.969  -2.009  1.00  0.00    -0.383 N 
HETATM   26  H   UNL     1       8.797   3.863  -1.556  1.00  0.00     0.157 HD
HETATM   27  H   UNL     1       8.222   3.121  -2.939  1.00  0.00     0.157 HD
ENDBRANCH  13  25
BRANCH  12  28
HETATM   28  C   UNL     1       9.166   0.818  -4.125  1.00  0.00     0.258 C 
HETATM   29  N   UNL     1       9.210  -0.488  -4.551  1.00  0.00    -0.352 N 
HETATM   30  H   UNL     1       9.888  -1.094  -4.099  1.00  0.00     0.163 HD
HETATM   31  O   UNL     1       8.516   1.698  -4.680  1.00  0.00    -0.267 OA
BRANCH  29  32
HETATM   32  C   UNL     1       8.551  -0.966  -5.753  1.00  0.00     0.084 C 
HETATM   33  C   UNL     1       9.512  -0.900  -6.943  1.00  0.00     0.025 C 
HETATM   34  C   UNL     1      10.645  -1.919  -6.823  1.00  0.00     0.002 C 
HETATM   35  C   UNL     1      10.113  -3.335  -6.622  1.00  0.00     0.000 C 
HETATM   36  C   UNL     1       9.149  -3.427  -5.442  1.00  0.00     0.002 C 
HETATM   37  C   UNL     1       8.027  -2.393  -5.541  1.00  0.00     0.025 C 
ENDBRANCH  29  32
ENDBRANCH  12  28
TORSDOF 7
