REMARK  6 active torsions:
REMARK  status: ('A' for Active; 'I' for Inactive)
REMARK    1  A    between atoms: C_4  and  C_5 
REMARK    2  A    between atoms: C_5  and  C_6 
REMARK    3  A    between atoms: C_8  and  C_9 
REMARK    4  A    between atoms: C_9  and  C_10 
REMARK       I    between atoms: C_10  and  N_11 
REMARK    5  A    between atoms: N_11  and  N_12 
REMARK       I    between atoms: N_12  and  C_13 
REMARK       I    between atoms: C_13  and  N_14 
REMARK    6  A    between atoms: N_14  and  C_15 
ROOT
HETATM    1  C   UNL     1       5.079  -3.272   2.238  1.00  0.00     0.238 C 
HETATM    2  N   UNL     1       3.722  -3.041   2.324  1.00  0.00    -0.266 N 
HETATM    3  O   UNL     1       5.645  -4.105   2.946  1.00  0.00    -0.272 OA
HETATM    4  H   UNL     1       3.245  -2.523   1.595  1.00  0.00     0.190 HD
ENDROOT
BRANCH   1   5
HETATM    5  C   UNL     1       5.868  -2.358   1.313  1.00  0.00     0.139 C 
BRANCH   5   6
HETATM    6  C   UNL     1       5.266  -2.048  -0.058  1.00  0.00     0.185 C 
HETATM    7  N   UNL     1       4.420  -0.861   0.034  1.00  0.00    -0.363 N 
HETATM    8  C   UNL     1       3.060  -0.921  -0.113  1.00  0.00     0.125 C 
HETATM    9  H   UNL     1       4.882   0.042  -0.016  1.00  0.00     0.161 HD
HETATM   10  N   UNL     1       2.403  -2.026  -0.335  1.00  0.00    -0.159 NA
HETATM   11  N   UNL     1       3.130  -3.160  -0.586  1.00  0.00    -0.244 N 
HETATM   12  C   UNL     1       4.507  -3.243  -0.629  1.00  0.00     0.261 C 
HETATM   13  H   UNL     1       2.617  -3.959  -0.951  1.00  0.00     0.192 HD
HETATM   14  O   UNL     1       5.075  -4.261  -1.019  1.00  0.00    -0.269 OA
BRANCH   8  15
HETATM   15  C   UNL     1       2.264   0.372   0.026  1.00  0.00     0.118 C 
BRANCH  15  16
HETATM   16  C   UNL     1       2.228   1.170  -1.254  1.00  0.00    -0.051 A 
HETATM   17  C   UNL     1       1.651   0.628  -2.412  1.00  0.00     0.007 A 
HETATM   18  C   UNL     1       1.591   1.374  -3.590  1.00  0.00     0.001 A 
HETATM   19  C   UNL     1       2.101   2.669  -3.622  1.00  0.00     0.000 A 
HETATM   20  C   UNL     1       2.673   3.220  -2.476  1.00  0.00     0.001 A 
HETATM   21  C   UNL     1       2.735   2.475  -1.296  1.00  0.00     0.007 A 
ENDBRANCH  15  16
ENDBRANCH   8  15
ENDBRANCH   5   6
ENDBRANCH   1   5
BRANCH   2  22
HETATM   22  N   UNL     1       2.963  -3.979   3.046  1.00  0.00    -0.249 N 
HETATM   23  C   UNL     1       1.635  -3.785   3.364  1.00  0.00     0.339 C 
HETATM   24  N   UNL     1       0.948  -2.968   2.494  1.00  0.00    -0.308 N 
HETATM   25  O   UNL     1       1.169  -4.346   4.351  1.00  0.00    -0.245 OA
HETATM   26  H   UNL     1       1.361  -2.867   1.576  1.00  0.00     0.170 HD
HETATM   27  H   UNL     1       3.493  -4.527   3.726  1.00  0.00     0.192 HD
BRANCH  24  28
HETATM   28  C   UNL     1      -0.372  -2.491   2.644  1.00  0.00     0.038 A 
HETATM   29  C   UNL     1      -1.114  -2.609   3.823  1.00  0.00     0.055 A 
HETATM   30  C   UNL     1      -2.417  -2.098   3.902  1.00  0.00     0.058 A 
HETATM   31 CL   UNL     1      -3.270  -2.292   5.394  1.00  0.00    -0.082 Cl
HETATM   32  C   UNL     1      -2.984  -1.453   2.800  1.00  0.00     0.055 A 
HETATM   33 CL   UNL     1      -4.579  -0.792   2.826  1.00  0.00    -0.083 Cl
HETATM   34  C   UNL     1      -2.245  -1.324   1.622  1.00  0.00     0.028 A 
HETATM   35  C   UNL     1      -0.949  -1.842   1.545  1.00  0.00     0.031 A 
ENDBRANCH  24  28
ENDBRANCH   2  22
TORSDOF 6
