REMARK  5 active torsions:
REMARK  status: ('A' for Active; 'I' for Inactive)
REMARK    1  A    between atoms: C_2  and  O_3 
REMARK    2  A    between atoms: O_3  and  C_4 
REMARK    3  A    between atoms: C_9  and  C_10 
REMARK       I    between atoms: C_10  and  N_11 
REMARK    4  A    between atoms: N_11  and  C_12 
REMARK    5  A    between atoms: C_12  and  C_13 
ROOT
HETATM    1  C   UNL     1       4.224  -3.745   0.253  1.00  0.00     0.256 C 
HETATM    2  N   UNL     1       4.777  -5.000   0.203  1.00  0.00    -0.348 N 
HETATM    3  O   UNL     1       3.019  -3.551   0.121  1.00  0.00    -0.267 OA
HETATM    4  H   UNL     1       5.774  -5.102   0.365  1.00  0.00     0.163 HD
ENDROOT
BRANCH   1   5
HETATM    5  C   UNL     1       5.144  -2.588   0.453  1.00  0.00     0.084 A 
HETATM    6  C   UNL     1       6.507  -2.683   0.741  1.00  0.00     0.180 A 
HETATM    7  N   UNL     1       7.317  -1.605   0.903  1.00  0.00    -0.236 NA
HETATM    8  C   UNL     1       6.756  -0.384   0.775  1.00  0.00     0.119 A 
HETATM    9  C   UNL     1       5.418  -0.181   0.496  1.00  0.00     0.020 A 
HETATM   10  C   UNL     1       4.604  -1.299   0.335  1.00  0.00     0.023 A 
BRANCH   6  11
HETATM   11  O   UNL     1       7.070  -3.938   0.880  1.00  0.00    -0.334 OA
BRANCH  11  12
HETATM   12  C   UNL     1       8.477  -3.926   1.132  1.00  0.00     0.173 C 
HETATM   13  C   UNL     1       8.934  -5.370   1.245  1.00  0.00     0.034 C 
ENDBRANCH  11  12
ENDBRANCH   6  11
ENDBRANCH   1   5
BRANCH   2  14
HETATM   14  C   UNL     1       3.996  -6.207   0.010  1.00  0.00     0.114 C 
HETATM   15  C   UNL     1       3.357  -6.661   1.324  1.00  0.00     0.037 C 
BRANCH  14  16
HETATM   16  C   UNL     1       4.880  -7.257  -0.644  1.00  0.00    -0.036 A 
HETATM   17  C   UNL     1       5.747  -8.078   0.094  1.00  0.00     0.010 A 
HETATM   18  C   UNL     1       6.584  -8.994  -0.549  1.00  0.00     0.019 A 
HETATM   19  C   UNL     1       6.570  -9.088  -1.939  1.00  0.00     0.011 A 
HETATM   20 BR   UNL     1       7.711 -10.318  -2.808  1.00  0.00    -0.051 Br
HETATM   21  C   UNL     1       5.730  -8.273  -2.692  1.00  0.00     0.019 A 
HETATM   22  C   UNL     1       4.893  -7.359  -2.046  1.00  0.00     0.010 A 
ENDBRANCH  14  16
ENDBRANCH   2  14
TORSDOF 5
