REMARK  7 active torsions:
REMARK  status: ('A' for Active; 'I' for Inactive)
REMARK    1  A    between atoms: C_2  and  N_3 
REMARK    2  A    between atoms: C_8  and  C_9 
REMARK    3  A    between atoms: C_9  and  N_10 
REMARK       I    between atoms: N_10  and  C_11 
REMARK       I    between atoms: C_11  and  N_12 
REMARK    4  A    between atoms: N_12  and  C_13 
REMARK    5  A    between atoms: C_14  and  O_15 
REMARK    6  A    between atoms: C_18  and  O_19 
REMARK    7  A    between atoms: C_26  and  N_27 
ROOT
HETATM    1  C   UNL     1       1.875   0.059   5.401  1.00  0.00     0.118 C 
HETATM    2  C   UNL     1       2.883   0.799   6.278  1.00  0.00     0.037 C 
ENDROOT
BRANCH   1   3
HETATM    3  C   UNL     1       1.306   0.975   4.313  1.00  0.00     0.006 A 
HETATM    4  C   UNL     1       1.964   1.203   3.020  1.00  0.00    -0.031 A 
HETATM    5  C   UNL     1       1.227   2.023   2.191  1.00  0.00     0.017 A 
HETATM    6  C   UNL     1       3.264   0.618   2.526  1.00  0.00     0.068 C 
HETATM    7  C   UNL     1       1.610   2.449   0.813  1.00  0.00     0.281 C 
HETATM    8  S   UNL     1      -0.208   2.538   2.902  1.00  0.00    -0.074 SA
HETATM    9  N   UNL     1       2.682   1.538   0.227  1.00  0.00    -0.067 N 
HETATM   10  H   UNL     1       3.112   2.059  -0.547  1.00  0.00     0.280 HD
HETATM   11  C   UNL     1       3.785   1.310   1.252  1.00  0.00     0.240 C 
HETATM   12  C   UNL     1       0.113   1.706   4.363  1.00  0.00     0.089 A 
BRANCH   9  13
HETATM   13  C   UNL     1       2.140   0.250  -0.356  1.00  0.00     0.231 C 
HETATM   14  C   UNL     1       1.515   0.508  -1.716  1.00  0.00     0.034 C 
ENDBRANCH   9  13
BRANCH  12  15
HETATM   15  N   UNL     1      -0.841   1.879   5.401  1.00  0.00    -0.327 N 
HETATM   16  C   UNL     1      -2.113   2.436   5.282  1.00  0.00     0.097 A 
HETATM   17  C   UNL     1      -2.758   2.421   6.498  1.00  0.00     0.019 A 
HETATM   18  C   UNL     1      -1.866   1.862   7.424  1.00  0.00     0.019 A 
HETATM   19  C   UNL     1      -0.708   1.561   6.742  1.00  0.00     0.097 A 
ENDBRANCH  12  15
ENDBRANCH   1   3
BRANCH   1  20
HETATM   20  N   UNL     1       2.303  -1.186   4.760  1.00  0.00    -0.334 N 
HETATM   21  C   UNL     1       3.370  -2.004   4.998  1.00  0.00     0.321 C 
HETATM   22  N   UNL     1       4.543  -1.374   5.311  1.00  0.00    -0.306 N 
HETATM   23  O   UNL     1       3.236  -3.198   4.751  1.00  0.00    -0.247 OA
HETATM   24  H   UNL     1       4.630  -0.478   4.872  1.00  0.00     0.171 HD
HETATM   25  H   UNL     1       1.523  -1.774   4.487  1.00  0.00     0.165 HD
BRANCH  22  26
HETATM   26  C   UNL     1       5.761  -2.062   5.519  1.00  0.00     0.071 A 
HETATM   27  C   UNL     1       5.894  -3.152   6.398  1.00  0.00     0.097 A 
HETATM   28  C   UNL     1       7.137  -3.799   6.505  1.00  0.00     0.077 A 
HETATM   29  C   UNL     1       8.250  -3.346   5.782  1.00  0.00     0.092 A 
HETATM   30  C   UNL     1       8.107  -2.228   4.950  1.00  0.00     0.069 A 
HETATM   31 CL   UNL     1       9.430  -1.606   4.024  1.00  0.00    -0.081 Cl
HETATM   32  C   UNL     1       6.879  -1.578   4.834  1.00  0.00     0.059 A 
BRANCH  27  33
HETATM   33  O   UNL     1       4.793  -3.469   7.151  1.00  0.00    -0.354 OA
HETATM   34  C   UNL     1       4.977  -4.351   8.250  1.00  0.00     0.210 C 
ENDBRANCH  27  33
BRANCH  29  35
HETATM   35  O   UNL     1       9.492  -3.923   5.819  1.00  0.00    -0.354 OA
HETATM   36  C   UNL     1       9.740  -4.900   6.821  1.00  0.00     0.210 C 
ENDBRANCH  29  35
ENDBRANCH  22  26
ENDBRANCH   1  20
TORSDOF 7
