REMARK  5 active torsions:
REMARK  status: ('A' for Active; 'I' for Inactive)
REMARK    1  A    between atoms: C_8  and  C_9 
REMARK    2  A    between atoms: N_10  and  N_11 
REMARK       I    between atoms: N_11  and  C_12 
REMARK    3  A    between atoms: C_12  and  C_13 
REMARK    4  A    between atoms: C_13  and  N_14 
REMARK    5  A    between atoms: N_14  and  C_15 
ROOT
HETATM    1  N   UNL     1       0.108  -3.588  -0.514  1.00  0.00    -0.246 N 
HETATM    2  C   UNL     1       0.809  -4.416   0.374  1.00  0.00     0.250 C 
HETATM    3  O   UNL     1       0.294  -5.134   1.230  1.00  0.00    -0.270 OA
HETATM    4  H   UNL     1       0.547  -2.698  -0.725  1.00  0.00     0.192 HD
ENDROOT
BRANCH   1   5
HETATM    5  N   UNL     1      -1.262  -3.522  -0.476  1.00  0.00    -0.184 NA
HETATM    6  C   UNL     1      -1.942  -4.599  -0.757  1.00  0.00     0.152 C 
BRANCH   6   7
HETATM    7  C   UNL     1      -1.429  -5.826  -1.343  1.00  0.00     0.011 A 
HETATM    8  C   UNL     1      -0.479  -6.020  -2.402  1.00  0.00     0.004 A 
HETATM    9  C   UNL     1       0.245  -5.160  -3.257  1.00  0.00     0.014 A 
HETATM   10  C   UNL     1      -0.302  -7.397  -2.555  1.00  0.00     0.043 A 
HETATM   11  C   UNL     1       1.141  -5.696  -4.189  1.00  0.00     0.001 A 
HETATM   12  C   UNL     1       1.315  -7.073  -4.292  1.00  0.00     0.002 A 
HETATM   13  C   UNL     1       0.590  -7.951  -3.481  1.00  0.00     0.030 A 
HETATM   14  N   UNL     1      -1.141  -8.016  -1.659  1.00  0.00    -0.364 N 
HETATM   15  H   UNL     1      -1.220  -9.017  -1.546  1.00  0.00     0.165 HD
HETATM   16  C   UNL     1      -1.854  -7.084  -0.956  1.00  0.00     0.102 A 
ENDBRANCH   6   7
ENDBRANCH   1   5
BRANCH   2  17
HETATM   17  C   UNL     1       2.326  -4.316   0.156  1.00  0.00     0.197 C 
BRANCH  17  18
HETATM   18  N   UNL     1       3.068  -5.055   1.183  1.00  0.00    -0.283 NA
HETATM   19  H   UNL     1       2.560  -5.090   2.071  1.00  0.00     0.128 HD
BRANCH  18  20
HETATM   20  C   UNL     1       4.429  -4.751   1.350  1.00  0.00     0.030 A 
HETATM   21  C   UNL     1       5.021  -4.743   2.629  1.00  0.00     0.055 A 
HETATM   22 CL   UNL     1       4.065  -5.010   4.047  1.00  0.00    -0.082 Cl
HETATM   23  C   UNL     1       6.386  -4.487   2.797  1.00  0.00     0.026 A 
HETATM   24  C   UNL     1       7.193  -4.258   1.684  1.00  0.00     0.002 A 
HETATM   25  C   UNL     1       6.636  -4.293   0.409  1.00  0.00     0.002 A 
HETATM   26  C   UNL     1       5.270  -4.545   0.245  1.00  0.00     0.025 A 
ENDBRANCH  18  20
ENDBRANCH  17  18
ENDBRANCH   2  17
TORSDOF 5
