REMARK  3 active torsions:
REMARK  status: ('A' for Active; 'I' for Inactive)
REMARK    1  A    between atoms: C_6  and  N_7 
REMARK       I    between atoms: N_7  and  C_8 
REMARK    2  A    between atoms: C_8  and  C_9 
REMARK    3  A    between atoms: C_9  and  C_10 
ROOT
HETATM    1  C   UNL     1      -2.406  -0.209  -0.256  1.00  0.00     0.286 C 
HETATM    2  N   UNL     1      -1.299  -0.368  -1.298  1.00  0.00    -0.056 N 
HETATM    3  H   UNL     1      -0.725  -1.183  -0.997  1.00  0.00     0.278 HD
HETATM    4  H   UNL     1      -1.697  -0.616  -2.212  1.00  0.00     0.278 HD
HETATM    5  C   UNL     1      -0.470   0.878  -1.377  1.00  0.00     0.209 C 
HETATM    6  C   UNL     1      -1.388   2.041  -1.818  1.00  0.00     0.115 C 
HETATM    7  N   UNL     1      -2.580   2.160  -0.981  1.00  0.00    -0.353 N 
HETATM    8  C   UNL     1      -3.258   1.053  -0.509  1.00  0.00     0.249 C 
HETATM    9  O   UNL     1      -4.449   1.125  -0.237  1.00  0.00    -0.271 OA
HETATM   10  C   UNL     1       0.686   0.692  -2.350  1.00  0.00     0.035 C 
HETATM   11  C   UNL     1       1.499   1.986  -2.440  1.00  0.00     0.002 C 
HETATM   12  C   UNL     1       0.631   3.197  -2.787  1.00  0.00     0.002 C 
HETATM   13  C   UNL     1      -0.584   3.340  -1.865  1.00  0.00     0.027 C 
HETATM   14  H   UNL     1      -3.201   2.950  -1.150  1.00  0.00     0.163 HD
ENDROOT
BRANCH   1  15
HETATM   15  C   UNL     1      -3.264  -1.475  -0.160  1.00  0.00     0.146 C 
BRANCH  15  16
HETATM   16  C   UNL     1      -2.407  -2.634   0.280  1.00  0.00     0.224 C 
HETATM   17  N   UNL     1      -2.909  -3.703   0.949  1.00  0.00    -0.327 N 
HETATM   18  H   UNL     1      -2.173  -4.311   1.298  1.00  0.00     0.169 HD
HETATM   19  O   UNL     1      -1.193  -2.597   0.032  1.00  0.00    -0.273 OA
BRANCH  17  20
HETATM   20  C   UNL     1      -4.218  -4.107   1.276  1.00  0.00     0.036 A 
HETATM   21  C   UNL     1      -5.379  -3.641   0.660  1.00  0.00     0.053 A 
HETATM   22  C   UNL     1      -6.630  -4.116   1.068  1.00  0.00     0.036 A 
HETATM   23  C   UNL     1      -6.741  -5.063   2.082  1.00  0.00     0.024 A 
HETATM   24 CL   UNL     1      -8.051  -3.529   0.293  1.00  0.00    -0.084 Cl
HETATM   25  C   UNL     1      -5.587  -5.554   2.684  1.00  0.00     0.004 A 
HETATM   26  C   UNL     1      -4.335  -5.087   2.275  1.00  0.00     0.029 A 
ENDBRANCH  17  20
ENDBRANCH  15  16
ENDBRANCH   1  15
TORSDOF 3
