REMARK  5 active torsions:
REMARK  status: ('A' for Active; 'I' for Inactive)
REMARK    1  A    between atoms: C_3  and  N_4 
REMARK       I    between atoms: N_4  and  C_5 
REMARK       I    between atoms: C_5  and  N_6 
REMARK    2  A    between atoms: N_6  and  N_7 
REMARK    3  A    between atoms: N_7  and  C_8 
REMARK    4  A    between atoms: N_7  and  C_14 
REMARK    5  A    between atoms: C_14  and  C_15 
ROOT
HETATM    1  N   UNL     1       5.492   1.795  -0.348  1.00  0.00    -0.284 N 
ENDROOT
BRANCH   1   2
HETATM    2  N   UNL     1       4.792   3.004  -0.560  1.00  0.00    -0.249 N 
HETATM    3  C   UNL     1       4.765   3.954   0.460  1.00  0.00     0.339 C 
HETATM    4  N   UNL     1       4.257   5.157  -0.005  1.00  0.00    -0.306 N 
HETATM    5  O   UNL     1       5.165   3.742   1.598  1.00  0.00    -0.245 OA
HETATM    6  H   UNL     1       4.440   5.315  -0.985  1.00  0.00     0.171 HD
HETATM    7  H   UNL     1       4.720   3.276  -1.531  1.00  0.00     0.192 HD
BRANCH   4   8
HETATM    8  C   UNL     1       4.052   6.323   0.772  1.00  0.00     0.059 A 
HETATM    9  C   UNL     1       3.564   6.364   2.086  1.00  0.00    -0.032 A 
HETATM   10  C   UNL     1       3.088   5.168   2.861  1.00  0.00     0.050 C 
HETATM   11  C   UNL     1       3.478   7.615   2.724  1.00  0.00     0.028 A 
HETATM   12  C   UNL     1       3.809   8.765   2.027  1.00  0.00     0.117 A 
HETATM   13  N   UNL     1       4.210   8.766   0.743  1.00  0.00    -0.271 NA
HETATM   14  C   UNL     1       4.317   7.551   0.154  1.00  0.00     0.146 A 
ENDBRANCH   4   8
ENDBRANCH   1   2
BRANCH   1  15
HETATM   15  C   UNL     1       4.794   0.614  -0.643  1.00  0.00     0.051 A 
HETATM   16  C   UNL     1       3.388   0.589  -0.708  1.00  0.00     0.031 A 
HETATM   17  C   UNL     1       2.679  -0.579  -1.012  1.00  0.00     0.002 A 
HETATM   18  C   UNL     1       3.360  -1.766  -1.253  1.00  0.00     0.000 A 
HETATM   19  C   UNL     1       4.747  -1.782  -1.181  1.00  0.00     0.002 A 
HETATM   20  C   UNL     1       5.449  -0.609  -0.876  1.00  0.00     0.031 A 
ENDBRANCH   1  15
BRANCH   1  21
HETATM   21  C   UNL     1       6.959   1.891  -0.283  1.00  0.00     0.187 C 
BRANCH  21  22
HETATM   22  C   UNL     1       7.637   2.214  -1.606  1.00  0.00    -0.038 A 
HETATM   23  C   UNL     1       7.078   1.916  -2.859  1.00  0.00     0.009 A 
HETATM   24  C   UNL     1       7.770   2.199  -4.039  1.00  0.00     0.001 A 
HETATM   25  C   UNL     1       9.038   2.771  -3.987  1.00  0.00     0.000 A 
HETATM   26  C   UNL     1       9.616   3.061  -2.754  1.00  0.00     0.001 A 
HETATM   27  C   UNL     1       8.923   2.783  -1.574  1.00  0.00     0.009 A 
ENDBRANCH  21  22
ENDBRANCH   1  21
TORSDOF 5
