REMARK  11 active torsions:
REMARK  status: ('A' for Active; 'I' for Inactive)
REMARK    1  A    between atoms: C_2  and  C_3 
REMARK    2  A    between atoms: C_3  and  C_4 
REMARK    3  A    between atoms: C_4  and  O_5 
REMARK    4  A    between atoms: O_5  and  C_6 
REMARK    5  A    between atoms: C_8  and  C_9 
REMARK       I    between atoms: C_9  and  N_10 
REMARK    6  A    between atoms: N_10  and  C_11 
REMARK    7  A    between atoms: C_11  and  N_12 
REMARK    8  A    between atoms: N_12  and  C_13 
REMARK    9  A    between atoms: C_15  and  O_16 
REMARK   10  A    between atoms: C_17  and  C_18 
REMARK   11  A    between atoms: C_25  and  C_26 
ROOT
HETATM    1  C   UNL     1       9.692   2.366   1.473  1.00  0.00     0.036 C 
HETATM    2  C   UNL     1       8.325   2.530   1.251  1.00  0.00     0.067 C 
HETATM    3  C   UNL     1       7.726   2.029   0.094  1.00  0.00     0.082 C 
HETATM    4  C   UNL     1       8.482   1.337  -0.860  1.00  0.00     0.050 C 
HETATM    5  C   UNL     1       9.814   1.022  -0.534  1.00  0.00     0.021 C 
HETATM    6  C   UNL     1      10.412   1.519   0.632  1.00  0.00     0.030 C 
ENDROOT
BRANCH   1   7
HETATM    7  N   UNL     1      10.389   3.049   2.493  1.00  0.00    -0.333 N 
HETATM    8  H   UNL     1      11.300   2.667   2.751  1.00  0.00     0.168 HD
BRANCH   7   9
HETATM    9  C   UNL     1      10.183   4.339   2.932  1.00  0.00     0.179 C 
HETATM   10  S   UNL     1       9.078   5.488   2.411  1.00  0.00    -0.040 SA
BRANCH   9  11
HETATM   11  N   UNL     1      11.041   4.781   3.915  1.00  0.00    -0.299 N 
HETATM   12  C   UNL     1      12.125   4.164   4.520  1.00  0.00     0.257 C 
HETATM   13  O   UNL     1      12.479   3.009   4.315  1.00  0.00    -0.267 OA
HETATM   14  H   UNL     1      10.815   5.723   4.207  1.00  0.00     0.171 HD
BRANCH  12  15
HETATM   15  C   UNL     1      12.824   5.032   5.506  1.00  0.00     0.035 A 
HETATM   16  C   UNL     1      13.023   6.391   5.232  1.00  0.00     0.053 A 
HETATM   17  C   UNL     1      13.555   7.220   6.217  1.00  0.00     0.069 A 
HETATM   18  C   UNL     1      13.959   6.690   7.440  1.00  0.00     0.037 A 
HETATM   19  C   UNL     1      13.795   5.327   7.697  1.00  0.00     0.004 A 
HETATM   20  C   UNL     1      13.225   4.493   6.731  1.00  0.00     0.017 A 
BRANCH  17  21
HETATM   21  O   UNL     1      13.740   8.555   5.991  1.00  0.00    -0.351 OA
BRANCH  21  22
HETATM   22  C   UNL     1      12.498   9.261   5.843  1.00  0.00     0.175 C 
BRANCH  22  23
HETATM   23  C   UNL     1      12.386   9.876   4.448  1.00  0.00     0.026 C 
BRANCH  23  24
HETATM   24  C   UNL     1      13.460  10.933   4.187  1.00  0.00    -0.002 C 
HETATM   25  C   UNL     1      13.298  11.558   2.809  1.00  0.00     0.005 C 
ENDBRANCH  23  24
ENDBRANCH  22  23
ENDBRANCH  21  22
ENDBRANCH  17  21
ENDBRANCH  12  15
ENDBRANCH   9  11
ENDBRANCH   7   9
ENDBRANCH   1   7
BRANCH   3  26
HETATM   26  O   UNL     1       6.390   2.260  -0.099  1.00  0.00    -0.360 OA
HETATM   27  H   UNL     1       6.073   2.890   0.569  1.00  0.00     0.217 HD
ENDBRANCH   3  26
BRANCH   4  28
HETATM   28  C   UNL     1       8.018   1.074  -2.225  1.00  0.00     0.183 A 
HETATM   29  O   UNL     1       6.909   1.769  -2.638  1.00  0.00    -0.289 OA
HETATM   30  C   UNL     1       6.908   1.634  -3.989  1.00  0.00     0.106 A 
HETATM   31  C   UNL     1       7.983   0.836  -4.333  1.00  0.00     0.094 A 
HETATM   32  C   UNL     1       6.037   2.233  -4.888  1.00  0.00     0.040 A 
HETATM   33  N   UNL     1       8.660   0.450  -3.202  1.00  0.00    -0.221 NA
HETATM   34  C   UNL     1       8.244   0.607  -5.690  1.00  0.00     0.041 A 
HETATM   35  C   UNL     1       7.419   1.231  -6.649  1.00  0.00    -0.056 A 
HETATM   36  C   UNL     1       6.329   2.024  -6.240  1.00  0.00     0.010 A 
BRANCH  35  37
HETATM   37  C   UNL     1       7.756   1.112  -8.115  1.00  0.00     0.034 C 
HETATM   38  C   UNL     1       8.843   2.101  -8.514  1.00  0.00     0.010 C 
ENDBRANCH  35  37
ENDBRANCH   4  28
TORSDOF 11
