REMARK  5 active torsions:
REMARK  status: ('A' for Active; 'I' for Inactive)
REMARK    1  A    between atoms: C_2  and  O_3 
REMARK    2  A    between atoms: O_3  and  C_4 
REMARK    3  A    between atoms: C_4  and  C_5 
REMARK    4  A    between atoms: C_6  and  N_7 
REMARK    5  A    between atoms: N_8  and  C_9 
ROOT
HETATM    1  C   UNL     1       5.205  -0.335   0.265  1.00  0.00     0.084 A 
HETATM    2  C   UNL     1       4.926   1.055   0.415  1.00  0.00     0.119 A 
HETATM    3  N   UNL     1       5.726   1.964  -0.244  1.00  0.00    -0.312 N 
HETATM    4  C   UNL     1       6.804   1.531  -0.977  1.00  0.00     0.150 A 
HETATM    5  C   UNL     1       7.090   0.180  -1.097  1.00  0.00     0.080 A 
HETATM    6  C   UNL     1       8.258  -0.220  -1.894  1.00  0.00     0.267 A 
HETATM    7  O   UNL     1       8.508  -1.418  -1.983  1.00  0.00    -0.267 OA
HETATM    8  N   UNL     1       8.991   0.806  -2.484  1.00  0.00    -0.272 N 
HETATM    9  C   UNL     1       8.622   2.136  -2.305  1.00  0.00     0.145 A 
HETATM   10  N   UNL     1       7.596   2.499  -1.595  1.00  0.00    -0.211 NA
HETATM   11  C   UNL     1      10.099   0.468  -3.252  1.00  0.00     0.102 A 
HETATM   12  C   UNL     1      10.853   1.397  -3.849  1.00  0.00     0.018 A 
HETATM   13  C   UNL     1      10.524   2.788  -3.705  1.00  0.00     0.012 A 
HETATM   14  C   UNL     1       9.468   3.182  -2.976  1.00  0.00    -0.015 A 
HETATM   15  C   UNL     1       9.088   4.619  -2.800  1.00  0.00     0.052 C 
HETATM   16  C   UNL     1       6.293  -0.769  -0.482  1.00  0.00     0.042 A 
ENDROOT
BRANCH   1  17
HETATM   17  C   UNL     1       4.357  -1.332   0.971  1.00  0.00     0.297 C 
HETATM   18  O   UNL     1       3.709  -1.053   1.966  1.00  0.00    -0.259 OA
BRANCH  17  19
HETATM   19  O   UNL     1       4.404  -2.521   0.332  1.00  0.00    -0.318 OA
BRANCH  19  20
HETATM   20  C   UNL     1       3.599  -3.576   0.890  1.00  0.00     0.174 C 
HETATM   21  C   UNL     1       2.232  -3.572   0.235  1.00  0.00     0.034 C 
ENDBRANCH  19  20
ENDBRANCH  17  19
ENDBRANCH   1  17
BRANCH   2  22
HETATM   22  N   UNL     1       3.784   1.446   1.114  1.00  0.00    -0.384 N 
HETATM   23  H   UNL     1       3.493   0.789   1.853  1.00  0.00     0.157 HD
HETATM   24  H   UNL     1       3.568   2.397   1.363  1.00  0.00     0.157 HD
ENDBRANCH   2  22
BRANCH   3  25
HETATM   25  C   UNL     1       5.458   3.453  -0.204  1.00  0.00     0.085 C 
HETATM   26  C   UNL     1       4.115   3.806  -0.834  1.00  0.00     0.032 C 
HETATM   27  C   UNL     1       5.702   4.015   1.191  1.00  0.00     0.032 C 
ENDBRANCH   3  25
TORSDOF 5
