REMARK  5 active torsions:
REMARK  status: ('A' for Active; 'I' for Inactive)
REMARK    1  A    between atoms: C_2  and  C_3 
REMARK    2  A    between atoms: C_3  and  O_4 
REMARK    3  A    between atoms: O_4  and  C_5 
REMARK    4  A    between atoms: C_8  and  C_9 
REMARK    5  A    between atoms: C_15  and  C_16 
ROOT
HETATM    1  C   UNL     1       8.493  -5.186   0.620  1.00  0.00     0.066 C 
HETATM    2  C   UNL     1       9.082  -4.844   1.944  1.00  0.00     0.028 A 
HETATM    3  C   UNL     1       9.206  -5.760   2.957  1.00  0.00     0.133 A 
HETATM    4  N   UNL     1       9.758  -5.117   4.017  1.00  0.00    -0.261 N 
HETATM    5  H   UNL     1       9.996  -5.479   4.935  1.00  0.00     0.191 HD
HETATM    6  N   UNL     1       9.981  -3.820   3.774  1.00  0.00    -0.172 NA
HETATM    7  C   UNL     1       9.559  -3.619   2.510  1.00  0.00     0.098 A 
HETATM    8  N   UNL     1       8.760  -7.053   2.850  1.00  0.00    -0.312 N 
HETATM    9  C   UNL     1       8.240  -7.524   1.606  1.00  0.00     0.224 C 
HETATM   10  O   UNL     1       7.756  -8.644   1.620  1.00  0.00    -0.273 OA
HETATM   11  C   UNL     1       8.463  -6.697   0.366  1.00  0.00     0.117 C 
HETATM   12  H   UNL     1       8.733  -7.690   3.637  1.00  0.00     0.170 HD
ENDROOT
BRANCH   1  13
HETATM   13  C   UNL     1       7.110  -4.564   0.532  1.00  0.00    -0.049 A 
HETATM   14  C   UNL     1       6.742  -3.938  -0.674  1.00  0.00     0.010 A 
HETATM   15  C   UNL     1       5.461  -3.405  -0.856  1.00  0.00     0.037 A 
HETATM   16  C   UNL     1       4.519  -3.495   0.164  1.00  0.00     0.069 A 
HETATM   17  C   UNL     1       4.878  -4.087   1.374  1.00  0.00     0.037 A 
HETATM   18  C   UNL     1       6.153  -4.631   1.555  1.00  0.00     0.010 A 
BRANCH  16  19
HETATM   19  O   UNL     1       3.235  -3.031   0.101  1.00  0.00    -0.348 OA
BRANCH  19  20
HETATM   20  C   UNL     1       2.680  -2.897  -1.207  1.00  0.00     0.202 C 
BRANCH  20  21
HETATM   21  C   UNL     1       1.199  -2.726  -1.049  1.00  0.00    -0.011 C 
HETATM   22  C   UNL     1       0.277  -3.553  -1.560  1.00  0.00     0.009 C 
ENDBRANCH  20  21
ENDBRANCH  19  20
ENDBRANCH  16  19
ENDBRANCH   1  13
BRANCH   7  23
HETATM   23  C   UNL     1       9.572  -2.272   1.937  1.00  0.00    -0.005 A 
HETATM   24  C   UNL     1       9.929  -2.036   0.604  1.00  0.00     0.014 A 
HETATM   25  C   UNL     1       9.895  -0.741   0.079  1.00  0.00     0.001 A 
HETATM   26  C   UNL     1       9.519   0.333   0.884  1.00  0.00     0.000 A 
HETATM   27  C   UNL     1       9.184   0.116   2.218  1.00  0.00     0.001 A 
HETATM   28  C   UNL     1       9.212  -1.178   2.741  1.00  0.00     0.014 A 
ENDBRANCH   7  23
TORSDOF 5
