REMARK  3 active torsions:
REMARK  status: ('A' for Active; 'I' for Inactive)
REMARK    1  A    between atoms: C_2  and  N_3 
REMARK       I    between atoms: N_3  and  C_4 
REMARK    2  A    between atoms: C_4  and  C_5 
REMARK    3  A    between atoms: C_5  and  C_6 
ROOT
HETATM    1  C   UNL     1      -1.510   1.568   0.672  1.00  0.00     0.286 C 
HETATM    2  N   UNL     1      -2.605   1.502  -0.399  1.00  0.00    -0.056 N 
HETATM    3  H   UNL     1      -3.397   2.104  -0.104  1.00  0.00     0.278 HD
HETATM    4  H   UNL     1      -2.243   1.907  -1.273  1.00  0.00     0.278 HD
HETATM    5  C   UNL     1      -3.158   0.124  -0.657  1.00  0.00     0.209 C 
HETATM    6  C   UNL     1      -1.995  -0.858  -0.893  1.00  0.00     0.115 C 
HETATM    7  N   UNL     1      -1.069  -0.851   0.226  1.00  0.00    -0.353 N 
HETATM    8  C   UNL     1      -0.653   0.301   0.839  1.00  0.00     0.249 C 
HETATM    9  O   UNL     1       0.362   0.297   1.528  1.00  0.00    -0.271 OA
HETATM   10  C   UNL     1      -4.100   0.167  -1.856  1.00  0.00     0.035 C 
HETATM   11  C   UNL     1      -4.645  -1.231  -2.151  1.00  0.00     0.002 C 
HETATM   12  C   UNL     1      -3.528  -2.261  -2.326  1.00  0.00     0.002 C 
HETATM   13  C   UNL     1      -2.547  -2.261  -1.153  1.00  0.00     0.027 C 
HETATM   14  H   UNL     1      -0.405  -1.618   0.323  1.00  0.00     0.163 HD
ENDROOT
BRANCH   1  15
HETATM   15  C   UNL     1      -2.028   2.081   2.019  1.00  0.00     0.146 C 
BRANCH  15  16
HETATM   16  C   UNL     1      -3.356   1.482   2.366  1.00  0.00     0.224 C 
HETATM   17  N   UNL     1      -3.575   0.452   3.211  1.00  0.00    -0.327 N 
HETATM   18  H   UNL     1      -4.572   0.254   3.256  1.00  0.00     0.169 HD
HETATM   19  O   UNL     1      -4.328   1.901   1.715  1.00  0.00    -0.273 OA
BRANCH  17  20
HETATM   20  C   UNL     1      -2.791  -0.397   4.016  1.00  0.00     0.034 A 
HETATM   21  C   UNL     1      -1.413  -0.324   4.209  1.00  0.00     0.032 A 
HETATM   22  C   UNL     1      -0.753  -1.261   5.017  1.00  0.00     0.044 A 
HETATM   23  C   UNL     1      -1.469  -2.271   5.641  1.00  0.00     0.116 A 
HETATM   24  C   UNL     1      -2.841  -2.359   5.479  1.00  0.00     0.044 A 
HETATM   25  F   UNL     1      -0.831  -3.163   6.406  1.00  0.00    -0.206 F 
HETATM   26  C   UNL     1      -3.497  -1.424   4.672  1.00  0.00     0.032 A 
ENDBRANCH  17  20
ENDBRANCH  15  16
ENDBRANCH   1  15
TORSDOF 3
