REMARK  5 active torsions:
REMARK  status: ('A' for Active; 'I' for Inactive)
REMARK    1  A    between atoms: C_9  and  C_10 
REMARK    2  A    between atoms: C_10  and  N_11 
REMARK    3  A    between atoms: N_11  and  C_14 
REMARK    4  A    between atoms: C_14  and  C_15 
REMARK    5  A    between atoms: C_16  and  C_17 
ROOT
HETATM    1  C   UNL     1      -0.484  -8.468  -1.039  1.00  0.00    -0.036 A 
HETATM    2  C   UNL     1       0.311  -9.416  -0.382  1.00  0.00     0.013 A 
HETATM    3  C   UNL     1       0.827 -10.512  -1.080  1.00  0.00     0.023 A 
HETATM    4  C   UNL     1       0.550 -10.672  -2.442  1.00  0.00     0.044 A 
HETATM    5  C   UNL     1       1.085 -11.792  -3.161  1.00  0.00     0.099 C 
HETATM    6  N   UNL     1       1.522 -12.694  -3.745  1.00  0.00    -0.191 NA
HETATM    7  C   UNL     1      -0.251  -9.733  -3.098  1.00  0.00     0.023 A 
HETATM    8  C   UNL     1      -0.771  -8.639  -2.398  1.00  0.00     0.013 A 
ENDROOT
BRANCH   1   9
HETATM    9  C   UNL     1      -1.040  -7.315  -0.325  1.00  0.00     0.009 C 
HETATM   10  C   UNL     1      -0.252  -6.404   0.269  1.00  0.00     0.001 C 
BRANCH  10  11
HETATM   11  C   UNL     1      -0.757  -5.216   1.013  1.00  0.00     0.259 C 
BRANCH  11  12
HETATM   12  N   UNL     1      -0.650  -3.994   0.170  1.00  0.00    -0.071 N 
HETATM   13  H   UNL     1      -1.221  -4.142  -0.675  1.00  0.00     0.277 HD
HETATM   14  H   UNL     1       0.319  -3.924  -0.165  1.00  0.00     0.277 HD
BRANCH  12  15
HETATM   15  C   UNL     1      -1.063  -2.725   0.858  1.00  0.00     0.242 C 
BRANCH  15  16
HETATM   16  C   UNL     1      -1.129  -1.531  -0.119  1.00  0.00     0.055 C 
HETATM   17  C   UNL     1      -2.090  -1.701  -1.284  1.00  0.00    -0.025 A 
HETATM   18  C   UNL     1      -3.293  -2.419  -1.181  1.00  0.00     0.010 A 
HETATM   19  C   UNL     1      -1.837  -1.000  -2.475  1.00  0.00     0.041 A 
HETATM   20  C   UNL     1      -4.178  -2.485  -2.261  1.00  0.00     0.001 A 
HETATM   21  C   UNL     1      -3.892  -1.812  -3.444  1.00  0.00     0.002 A 
HETATM   22  C   UNL     1      -2.728  -1.055  -3.548  1.00  0.00     0.030 A 
HETATM   23  N   UNL     1      -0.711  -0.182  -2.584  1.00  0.00    -0.327 N 
HETATM   24  C   UNL     1       0.291  -0.113  -1.662  1.00  0.00     0.222 C 
HETATM   25  H   UNL     1      -0.623   0.454  -3.371  1.00  0.00     0.169 HD
HETATM   26  O   UNL     1       1.214   0.687  -1.765  1.00  0.00    -0.273 OA
HETATM   27  C   UNL     1       0.282  -1.184  -0.604  1.00  0.00     0.114 C 
ENDBRANCH  15  16
ENDBRANCH  12  15
ENDBRANCH  11  12
ENDBRANCH  10  11
ENDBRANCH   1   9
TORSDOF 5
