REMARK  10 active torsions:
REMARK  status: ('A' for Active; 'I' for Inactive)
REMARK    1  A    between atoms: C_6  and  N_7 
REMARK    2  A    between atoms: C_8  and  S_9 
REMARK    3  A    between atoms: S_9  and  C_10 
REMARK    4  A    between atoms: C_10  and  C_11 
REMARK       I    between atoms: C_11  and  N_12 
REMARK    5  A    between atoms: N_12  and  C_13 
REMARK    6  A    between atoms: C_13  and  C_14 
REMARK    7  A    between atoms: C_14  and  C_15 
REMARK    8  A    between atoms: C_17  and  O_18 
REMARK    9  A    between atoms: C_20  and  O_21 
REMARK   10  A    between atoms: C_29  and  N_30 
ROOT
HETATM    1  N   UNL     1       8.398  -0.435  -0.435  1.00  0.00    -0.276 N 
HETATM    2  C   UNL     1       7.115  -1.049  -0.480  1.00  0.00     0.177 A 
HETATM    3  N   UNL     1       6.071  -0.585  -1.126  1.00  0.00    -0.204 NA
HETATM    4  C   UNL     1       6.305   0.558  -1.805  1.00  0.00     0.162 A 
HETATM    5  C   UNL     1       7.452   1.297  -1.890  1.00  0.00     0.081 A 
HETATM    6  C   UNL     1       8.584   0.820  -1.155  1.00  0.00     0.124 A 
HETATM    7  N   UNL     1       5.397   1.212  -2.584  1.00  0.00    -0.260 N 
HETATM    8  H   UNL     1       4.434   0.952  -2.770  1.00  0.00     0.191 HD
HETATM    9  N   UNL     1       5.899   2.327  -3.158  1.00  0.00    -0.177 NA
HETATM   10  C   UNL     1       7.173   2.380  -2.737  1.00  0.00     0.068 A 
HETATM   11  C   UNL     1       8.044   3.489  -3.193  1.00  0.00     0.073 C 
ENDROOT
BRANCH   2  12
HETATM   12  S   UNL     1       6.840  -2.585   0.376  1.00  0.00    -0.082 SA
BRANCH  12  13
HETATM   13  C   UNL     1       5.133  -2.950  -0.117  1.00  0.00     0.185 C 
BRANCH  13  14
HETATM   14  C   UNL     1       4.659  -4.283   0.443  1.00  0.00     0.227 C 
HETATM   15  N   UNL     1       3.412  -4.227   1.037  1.00  0.00    -0.360 N 
HETATM   16  H   UNL     1       2.943  -3.338   1.151  1.00  0.00     0.162 HD
HETATM   17  O   UNL     1       5.292  -5.329   0.328  1.00  0.00    -0.273 OA
BRANCH  15  18
HETATM   18  C   UNL     1       2.726  -5.419   1.501  1.00  0.00     0.127 C 
BRANCH  18  19
HETATM   19  C   UNL     1       3.210  -5.891   2.874  1.00  0.00     0.058 C 
BRANCH  19  20
HETATM   20  C   UNL     1       2.361  -7.031   3.385  1.00  0.00    -0.054 A 
HETATM   21  C   UNL     1       2.593  -8.342   2.941  1.00  0.00     0.046 A 
HETATM   22  C   UNL     1       1.782  -9.400   3.371  1.00  0.00     0.102 A 
HETATM   23  C   UNL     1       0.718  -9.145   4.260  1.00  0.00     0.101 A 
HETATM   24  C   UNL     1       0.491  -7.839   4.704  1.00  0.00     0.040 A 
HETATM   25  C   UNL     1       1.305  -6.790   4.268  1.00  0.00     0.010 A 
BRANCH  22  26
HETATM   26  O   UNL     1       1.937 -10.707   2.977  1.00  0.00    -0.353 OA
HETATM   27  C   UNL     1       3.013 -11.009   2.102  1.00  0.00     0.210 C 
ENDBRANCH  22  26
BRANCH  23  28
HETATM   28  O   UNL     1      -0.035 -10.233   4.628  1.00  0.00    -0.353 OA
HETATM   29  C   UNL     1      -1.131 -10.012   5.504  1.00  0.00     0.210 C 
ENDBRANCH  23  28
ENDBRANCH  19  20
ENDBRANCH  18  19
ENDBRANCH  15  18
ENDBRANCH  13  14
ENDBRANCH  12  13
ENDBRANCH   2  12
BRANCH   1  30
HETATM   30  C   UNL     1       9.493  -1.022   0.266  1.00  0.00     0.045 A 
HETATM   31  C   UNL     1       9.524  -1.055   1.665  1.00  0.00     0.054 A 
HETATM   32  C   UNL     1      10.646  -1.550   2.339  1.00  0.00     0.042 A 
HETATM   33  C   UNL     1      11.767  -2.006   1.629  1.00  0.00    -0.040 A 
HETATM   34 CL   UNL     1      10.607  -1.556   4.066  1.00  0.00    -0.084 Cl
HETATM   35  C   UNL     1      12.989  -2.538   2.326  1.00  0.00     0.050 C 
HETATM   36  C   UNL     1      11.731  -1.976   0.228  1.00  0.00     0.011 A 
HETATM   37  C   UNL     1      10.608  -1.488  -0.446  1.00  0.00     0.031 A 
ENDBRANCH   1  30
BRANCH   6  38
HETATM   38  N   UNL     1       9.708   1.511  -1.115  1.00  0.00    -0.384 N 
HETATM   39  H   UNL     1       9.812   2.391  -1.599  1.00  0.00     0.157 HD
HETATM   40  H   UNL     1      10.489   1.178  -0.562  1.00  0.00     0.157 HD
ENDBRANCH   6  38
TORSDOF 10
