REMARK  7 active torsions:
REMARK  status: ('A' for Active; 'I' for Inactive)
REMARK    1  A    between atoms: C_2  and  O_3 
REMARK    2  A    between atoms: O_3  and  C_4 
REMARK    3  A    between atoms: C_4  and  C_5 
REMARK    4  A    between atoms: C_6  and  C_7 
REMARK    5  A    between atoms: C_18  and  C_19 
REMARK    6  A    between atoms: C_19  and  N_20 
REMARK    7  A    between atoms: N_20  and  C_21 
ROOT
HETATM    1  C   UNL     1       5.301  -0.511  -0.305  1.00  0.00     0.068 A 
HETATM    2  C   UNL     1       5.028   0.964  -0.217  1.00  0.00     0.161 A 
HETATM    3  N   UNL     1       6.128   1.678   0.404  1.00  0.00    -0.330 N 
HETATM    4  C   UNL     1       7.206   1.104   0.986  1.00  0.00     0.321 A 
HETATM    5  O   UNL     1       8.056   1.771   1.564  1.00  0.00    -0.247 OA
HETATM    6  N   UNL     1       7.304  -0.248   0.881  1.00  0.00    -0.310 N 
HETATM    7  C   UNL     1       6.403  -1.071   0.234  1.00  0.00     0.046 A 
HETATM    8  H   UNL     1       6.063   2.681   0.513  1.00  0.00     0.165 HD
HETATM    9  H   UNL     1       8.138  -0.643   1.302  1.00  0.00     0.170 HD
ENDROOT
BRANCH   7  10
HETATM   10  C   UNL     1       6.791  -2.536   0.174  1.00  0.00     0.177 C 
BRANCH  10  11
HETATM   11  N   UNL     1       6.554  -3.128   1.479  1.00  0.00    -0.384 N 
HETATM   12  H   UNL     1       6.731  -2.518   2.271  1.00  0.00     0.160 HD
BRANCH  11  13
HETATM   13  C   UNL     1       6.811  -4.475   1.720  1.00  0.00     0.029 A 
HETATM   14  C   UNL     1       6.684  -4.958   3.029  1.00  0.00     0.053 A 
HETATM   15  C   UNL     1       6.843  -6.319   3.326  1.00  0.00     0.042 A 
HETATM   16 CL   UNL     1       6.659  -6.812   4.973  1.00  0.00    -0.084 Cl
HETATM   17  C   UNL     1       7.127  -7.243   2.314  1.00  0.00    -0.040 A 
HETATM   18  C   UNL     1       7.277  -8.713   2.585  1.00  0.00     0.050 C 
HETATM   19  C   UNL     1       7.218  -6.773   1.000  1.00  0.00     0.011 A 
HETATM   20  C   UNL     1       7.052  -5.412   0.711  1.00  0.00     0.030 A 
ENDBRANCH  11  13
ENDBRANCH  10  11
ENDBRANCH   7  10
BRANCH   1  21
HETATM   21  C   UNL     1       4.281  -1.336  -0.993  1.00  0.00     0.293 C 
HETATM   22  O   UNL     1       3.926  -2.446  -0.636  1.00  0.00    -0.259 OA
BRANCH  21  23
HETATM   23  O   UNL     1       3.828  -0.677  -2.090  1.00  0.00    -0.318 OA
BRANCH  23  24
HETATM   24  C   UNL     1       2.812  -1.360  -2.842  1.00  0.00     0.174 C 
HETATM   25  C   UNL     1       3.451  -2.273  -3.870  1.00  0.00     0.034 C 
ENDBRANCH  23  24
ENDBRANCH  21  23
ENDBRANCH   1  21
BRANCH   2  26
HETATM   26  C   UNL     1       3.732   1.304   0.508  1.00  0.00    -0.031 A 
HETATM   27  C   UNL     1       3.584   1.068   1.886  1.00  0.00     0.011 A 
HETATM   28  C   UNL     1       2.390   1.385   2.538  1.00  0.00     0.024 A 
HETATM   29  C   UNL     1       1.333   1.936   1.819  1.00  0.00     0.034 A 
HETATM   30 CL   UNL     1      -0.137   2.328   2.622  1.00  0.00    -0.084 Cl
HETATM   31  C   UNL     1       1.458   2.172   0.452  1.00  0.00     0.024 A 
HETATM   32  C   UNL     1       2.653   1.859  -0.201  1.00  0.00     0.011 A 
ENDBRANCH   2  26
TORSDOF 7
