REMARK  6 active torsions:
REMARK  status: ('A' for Active; 'I' for Inactive)
REMARK    1  A    between atoms: C_9  and  C_10 
REMARK       I    between atoms: C_10  and  N_11 
REMARK    2  A    between atoms: N_11  and  C_12 
REMARK    3  A    between atoms: C_12  and  C_13 
REMARK    4  A    between atoms: C_13  and  O_14 
REMARK    5  A    between atoms: C_13  and  C_15 
REMARK    6  A    between atoms: C_18  and  O_19 
ROOT
HETATM    1  C   UNL     1       0.220  -3.268  -2.535  1.00  0.00     0.258 C 
HETATM    2  N   UNL     1       1.371  -3.953  -2.229  1.00  0.00    -0.350 N 
HETATM    3  O   UNL     1       0.161  -2.042  -2.550  1.00  0.00    -0.267 OA
HETATM    4  H   UNL     1       1.366  -4.966  -2.345  1.00  0.00     0.163 HD
ENDROOT
BRANCH   2   5
HETATM    5  C   UNL     1       2.665  -3.297  -2.071  1.00  0.00     0.114 C 
HETATM    6  C   UNL     1       3.330  -3.175  -3.445  1.00  0.00     0.035 C 
BRANCH   5   7
HETATM    7  C   UNL     1       3.586  -4.059  -1.082  1.00  0.00     0.173 C 
BRANCH   7   8
HETATM    8  O   UNL     1       3.739  -5.428  -1.484  1.00  0.00    -0.389 OA
HETATM    9  H   UNL     1       4.089  -5.905  -0.712  1.00  0.00     0.210 HD
ENDBRANCH   7   8
BRANCH   7  10
HETATM   10  C   UNL     1       3.120  -3.974   0.360  1.00  0.00    -0.028 A 
HETATM   11  C   UNL     1       3.635  -2.980   1.202  1.00  0.00     0.012 A 
HETATM   12  C   UNL     1       3.212  -2.885   2.530  1.00  0.00     0.037 A 
HETATM   13  C   UNL     1       2.266  -3.775   3.043  1.00  0.00     0.068 A 
HETATM   14  C   UNL     1       1.737  -4.759   2.209  1.00  0.00     0.037 A 
HETATM   15  C   UNL     1       2.157  -4.854   0.877  1.00  0.00     0.012 A 
BRANCH  13  16
HETATM   16  O   UNL     1       1.947  -3.573   4.357  1.00  0.00    -0.356 OA
HETATM   17  C   UNL     1       1.006  -4.469   4.935  1.00  0.00     0.210 C 
ENDBRANCH  13  16
ENDBRANCH   7  10
ENDBRANCH   5   7
ENDBRANCH   2   5
BRANCH   1  18
HETATM   18  C   UNL     1      -0.926  -4.101  -2.864  1.00  0.00     0.105 A 
HETATM   19  C   UNL     1      -0.971  -5.480  -2.976  1.00  0.00     0.169 A 
HETATM   20  N   UNL     1      -0.004  -6.439  -2.803  1.00  0.00    -0.233 NA
HETATM   21  N   UNL     1      -2.277  -5.804  -3.361  1.00  0.00    -0.219 N 
HETATM   22  C   UNL     1      -0.355  -7.669  -3.045  1.00  0.00     0.035 A 
HETATM   23  C   UNL     1       0.678  -8.752  -2.859  1.00  0.00     0.070 C 
HETATM   24  C   UNL     1      -1.722  -8.104  -3.469  1.00  0.00     0.053 A 
HETATM   25  C   UNL     1      -2.644  -7.135  -3.608  1.00  0.00     0.036 A 
HETATM   26  C   UNL     1      -4.054  -7.409  -4.030  1.00  0.00     0.070 C 
HETATM   27  N   UNL     1      -3.058  -4.701  -3.451  1.00  0.00    -0.170 NA
HETATM   28  C   UNL     1      -2.247  -3.678  -3.162  1.00  0.00     0.071 A 
HETATM   29  C   UNL     1      -2.774  -2.288  -3.184  1.00  0.00     0.073 C 
ENDBRANCH   1  18
TORSDOF 6
