REMARK  3 active torsions:
REMARK  status: ('A' for Active; 'I' for Inactive)
REMARK    1  A    between atoms: C_5  and  N_6 
REMARK       I    between atoms: N_6  and  C_7 
REMARK    2  A    between atoms: C_7  and  C_8 
REMARK    3  A    between atoms: C_8  and  C_9 
ROOT
HETATM    1  C   UNL     1       5.557  -1.897  -0.299  1.00  0.00     0.286 C 
HETATM    2  N   UNL     1       5.555  -1.737   1.229  1.00  0.00    -0.056 N 
HETATM    3  H   UNL     1       4.572  -1.670   1.523  1.00  0.00     0.278 HD
HETATM    4  H   UNL     1       5.865  -2.632   1.668  1.00  0.00     0.278 HD
HETATM    5  C   UNL     1       6.299  -0.578   1.819  1.00  0.00     0.209 C 
HETATM    6  C   UNL     1       6.033   0.693   0.981  1.00  0.00     0.115 C 
HETATM    7  N   UNL     1       6.299   0.475  -0.435  1.00  0.00    -0.353 N 
HETATM    8  C   UNL     1       5.997  -0.674  -1.109  1.00  0.00     0.249 C 
HETATM    9  O   UNL     1       6.079  -0.706  -2.333  1.00  0.00    -0.271 OA
HETATM   10  C   UNL     1       7.783  -0.918   1.947  1.00  0.00     0.035 C 
HETATM   11  C   UNL     1       8.570   0.280   2.477  1.00  0.00     0.002 C 
HETATM   12  C   UNL     1       8.344   1.526   1.624  1.00  0.00     0.002 C 
HETATM   13  C   UNL     1       6.858   1.869   1.510  1.00  0.00     0.027 C 
HETATM   14  H   UNL     1       6.482   1.273  -1.041  1.00  0.00     0.163 HD
ENDROOT
BRANCH   1  15
HETATM   15  C   UNL     1       6.359  -3.131  -0.726  1.00  0.00     0.146 C 
BRANCH  15  16
HETATM   16  C   UNL     1       5.696  -4.301  -0.055  1.00  0.00     0.224 C 
HETATM   17  N   UNL     1       4.827  -4.996  -0.859  1.00  0.00    -0.327 N 
HETATM   18  H   UNL     1       4.874  -4.851  -1.864  1.00  0.00     0.169 HD
HETATM   19  O   UNL     1       5.830  -4.387   1.166  1.00  0.00    -0.273 OA
BRANCH  17  20
HETATM   20  C   UNL     1       3.810  -5.879  -0.433  1.00  0.00     0.034 A 
HETATM   21  C   UNL     1       3.616  -6.261   0.895  1.00  0.00     0.030 A 
HETATM   22  C   UNL     1       2.544  -7.088   1.247  1.00  0.00     0.009 A 
HETATM   23  C   UNL     1       1.652  -7.550   0.276  1.00  0.00    -0.062 A 
HETATM   24  C   UNL     1       0.486  -8.415   0.651  1.00  0.00     0.048 C 
HETATM   25  C   UNL     1       1.850  -7.173  -1.055  1.00  0.00     0.009 A 
HETATM   26  C   UNL     1       2.924  -6.352  -1.408  1.00  0.00     0.030 A 
ENDBRANCH  17  20
ENDBRANCH  15  16
ENDBRANCH   1  15
TORSDOF 3
