REMARK  2 active torsions:
REMARK  status: ('A' for Active; 'I' for Inactive)
REMARK    1  A    between atoms: C_7  and  C_8 
REMARK    2  A    between atoms: C_13  and  C_18 
ROOT
HETATM    1  C   UNL     1      -3.835  -7.943  -5.539  1.00  0.00    -0.020 A 
HETATM    2  C   UNL     1      -3.805  -6.539  -5.574  1.00  0.00     0.015 A 
HETATM    3  C   UNL     1      -3.308  -5.790  -4.496  1.00  0.00     0.035 A 
HETATM    4  C   UNL     1      -2.831  -6.471  -3.369  1.00  0.00     0.085 A 
HETATM    5  N   UNL     1      -2.299  -5.980  -2.202  1.00  0.00    -0.233 NA
HETATM    6  C   UNL     1      -1.991  -7.036  -1.476  1.00  0.00     0.111 A 
HETATM    7  N   UNL     1      -2.322  -8.195  -2.141  1.00  0.00    -0.342 N 
HETATM    8  H   UNL     1      -2.164  -9.133  -1.796  1.00  0.00     0.167 HD
HETATM    9  C   UNL     1      -2.866  -7.859  -3.352  1.00  0.00     0.063 A 
HETATM   10  C   UNL     1      -3.366  -8.630  -4.406  1.00  0.00     0.044 A 
ENDROOT
BRANCH   6  11
HETATM   11  C   UNL     1      -1.328  -7.008  -0.125  1.00  0.00     0.084 C 
HETATM   12  C   UNL     1      -1.725  -8.176   0.776  1.00  0.00     0.188 C 
HETATM   13  O   UNL     1      -1.283  -9.453   0.290  1.00  0.00    -0.350 OA
HETATM   14  C   UNL     1       0.021  -9.492  -0.126  1.00  0.00     0.075 A 
HETATM   15  C   UNL     1       0.567 -10.763  -0.309  1.00  0.00     0.037 A 
HETATM   16  C   UNL     1       0.772  -8.351  -0.428  1.00  0.00    -0.024 A 
HETATM   17  C   UNL     1       1.876 -10.903  -0.768  1.00  0.00     0.003 A 
HETATM   18  C   UNL     1       2.639  -9.772  -1.049  1.00  0.00     0.001 A 
HETATM   19  C   UNL     1       2.091  -8.501  -0.878  1.00  0.00     0.010 A 
HETATM   20  C   UNL     1       0.195  -6.973  -0.254  1.00  0.00     0.056 C 
ENDBRANCH   6  11
BRANCH   1  21
HETATM   21  C   UNL     1      -4.380  -8.673  -6.672  1.00  0.00     0.017 A 
HETATM   22  C   UNL     1      -3.840  -9.807  -7.255  1.00  0.00     0.036 A 
HETATM   23  C   UNL     1      -2.629 -10.616  -6.977  1.00  0.00     0.070 C 
HETATM   24  N   UNL     1      -4.684 -10.127  -8.287  1.00  0.00    -0.282 N 
HETATM   25  H   UNL     1      -4.607 -10.901  -8.939  1.00  0.00     0.189 HD
HETATM   26  N   UNL     1      -5.715  -9.282  -8.431  1.00  0.00    -0.186 NA
HETATM   27  C   UNL     1      -5.528  -8.395  -7.452  1.00  0.00     0.153 A 
ENDBRANCH   1  21
TORSDOF 2
