REMARK  4 active torsions:
REMARK  status: ('A' for Active; 'I' for Inactive)
REMARK    1  A    between atoms: C_5  and  C_6 
REMARK    2  A    between atoms: C_6  and  C_7 
REMARK       I    between atoms: C_7  and  N_8 
REMARK    3  A    between atoms: N_8  and  C_9 
REMARK    4  A    between atoms: C_16  and  C_17 
REMARK       I    between atoms: C_17  and  N_18 
ROOT
HETATM    1  C   UNL     1       4.941  -2.548   1.285  1.00  0.00     0.035 A 
HETATM    2  C   UNL     1       5.800  -3.595   0.926  1.00  0.00     0.046 A 
HETATM    3  C   UNL     1       7.129  -3.604   1.405  1.00  0.00     0.030 A 
HETATM    4  C   UNL     1       7.558  -2.556   2.210  1.00  0.00     0.063 A 
HETATM    5  N   UNL     1       8.863  -2.835   2.504  1.00  0.00    -0.277 N 
HETATM    6  H   UNL     1       9.496  -2.282   3.070  1.00  0.00     0.189 HD
HETATM    7  N   UNL     1       9.320  -3.983   1.977  1.00  0.00    -0.168 NA
HETATM    8  C   UNL     1       8.258  -4.471   1.296  1.00  0.00     0.156 A 
HETATM    9  C   UNL     1       6.733  -1.493   2.582  1.00  0.00     0.034 A 
HETATM   10  C   UNL     1       5.415  -1.518   2.110  1.00  0.00     0.032 A 
ENDROOT
BRANCH   1  11
HETATM   11  N   UNL     1       3.591  -2.466   0.882  1.00  0.00    -0.327 N 
HETATM   12  C   UNL     1       2.918  -3.301   0.007  1.00  0.00     0.226 C 
HETATM   13  O   UNL     1       3.409  -4.212  -0.653  1.00  0.00    -0.273 OA
HETATM   14  H   UNL     1       3.048  -1.722   1.301  1.00  0.00     0.169 HD
BRANCH  12  15
HETATM   15  C   UNL     1       1.445  -2.947  -0.154  1.00  0.00     0.142 C 
BRANCH  15  16
HETATM   16  C   UNL     1       0.665  -2.919   1.147  1.00  0.00    -0.038 A 
HETATM   17  C   UNL     1       0.418  -4.098   1.909  1.00  0.00    -0.019 A 
HETATM   18  C   UNL     1      -0.307  -3.984   3.123  1.00  0.00    -0.025 A 
HETATM   19  C   UNL     1       0.850  -5.389   1.527  1.00  0.00     0.013 A 
HETATM   20  C   UNL     1      -0.566  -5.127   3.899  1.00  0.00     0.012 A 
HETATM   21  C   UNL     1      -0.769  -2.730   3.548  1.00  0.00     0.012 A 
HETATM   22  C   UNL     1      -0.122  -6.385   3.496  1.00  0.00     0.001 A 
HETATM   23  C   UNL     1       0.586  -6.516   2.310  1.00  0.00     0.001 A 
HETATM   24  C   UNL     1      -0.532  -1.586   2.791  1.00  0.00     0.001 A 
HETATM   25  C   UNL     1       0.178  -1.679   1.600  1.00  0.00     0.008 A 
ENDBRANCH  15  16
ENDBRANCH  12  15
ENDBRANCH   1  11
BRANCH   8  26
HETATM   26  C   UNL     1       8.341  -5.750   0.575  1.00  0.00     0.270 C 
HETATM   27  N   UNL     1       9.558  -6.368   0.675  1.00  0.00    -0.365 N 
HETATM   28  H   UNL     1      10.282  -5.926   1.230  1.00  0.00     0.159 HD
HETATM   29  H   UNL     1       9.701  -7.261   0.233  1.00  0.00     0.159 HD
HETATM   30  O   UNL     1       7.425  -6.256  -0.063  1.00  0.00    -0.266 OA
ENDBRANCH   8  26
TORSDOF 4
