REMARK  8 active torsions:
REMARK  status: ('A' for Active; 'I' for Inactive)
REMARK    1  A    between atoms: C_2  and  N_3 
REMARK       I    between atoms: N_3  and  C_4 
REMARK    2  A    between atoms: C_4  and  C_5 
REMARK    3  A    between atoms: C_5  and  O_6 
REMARK    4  A    between atoms: O_6  and  C_7 
REMARK    5  A    between atoms: C_8  and  O_9 
REMARK    6  A    between atoms: C_12  and  C_13 
REMARK    7  A    between atoms: C_13  and  N_14 
REMARK    8  A    between atoms: N_14  and  C_15 
ROOT
HETATM    1  C   UNL     1       0.498   2.949  -1.483  1.00  0.00     0.102 A 
HETATM    2  C   UNL     1       0.077   2.112  -2.530  1.00  0.00     0.102 A 
HETATM    3  C   UNL     1      -0.448   2.682  -3.701  1.00  0.00     0.048 A 
HETATM    4  C   UNL     1      -0.523   4.069  -3.871  1.00  0.00    -0.042 A 
HETATM    5  C   UNL     1      -0.100   4.893  -2.825  1.00  0.00     0.011 A 
HETATM    6  C   UNL     1       0.411   4.339  -1.648  1.00  0.00     0.040 A 
ENDROOT
BRANCH   4   7
HETATM    7  C   UNL     1      -1.055   4.667  -5.150  1.00  0.00     0.131 C 
BRANCH   7   8
HETATM    8  N   UNL     1      -2.450   5.046  -4.967  1.00  0.00    -0.289 NA
HETATM    9  H   UNL     1      -2.969   4.329  -4.465  1.00  0.00     0.128 HD
BRANCH   8  10
HETATM   10  C   UNL     1      -3.164   5.536  -6.072  1.00  0.00     0.010 A 
HETATM   11  C   UNL     1      -4.565   5.410  -6.070  1.00  0.00     0.055 A 
HETATM   12  C   UNL     1      -5.262   5.949  -7.127  1.00  0.00     0.065 A 
HETATM   13  C   UNL     1      -4.632   6.635  -8.159  1.00  0.00     0.063 A 
HETATM   14  N   UNL     1      -6.629   5.947  -7.389  1.00  0.00    -0.306 N 
HETATM   15  N   UNL     1      -5.605   7.054  -9.057  1.00  0.00    -0.307 N 
HETATM   16  C   UNL     1      -3.274   6.822  -8.183  1.00  0.00     0.034 A 
HETATM   17  C   UNL     1      -6.859   6.632  -8.591  1.00  0.00     0.325 A 
HETATM   18  H   UNL     1      -5.471   7.580  -9.905  1.00  0.00     0.170 HD
HETATM   19  O   UNL     1      -7.936   6.823  -9.126  1.00  0.00    -0.247 OA
HETATM   20  C   UNL     1      -2.545   6.274  -7.117  1.00  0.00     0.026 A 
HETATM   21  H   UNL     1      -7.358   5.535  -6.830  1.00  0.00     0.170 HD
ENDBRANCH   8  10
ENDBRANCH   7   8
ENDBRANCH   4   7
BRANCH   2  22
HETATM   22  O   UNL     1       0.076   0.742  -2.578  1.00  0.00    -0.353 OA
HETATM   23  C   UNL     1       0.859   0.025  -1.636  1.00  0.00     0.210 C 
ENDBRANCH   2  22
BRANCH   1  24
HETATM   24  O   UNL     1       1.035   2.378  -0.359  1.00  0.00    -0.339 OA
BRANCH  24  25
HETATM   25  C   UNL     1       0.942   3.093   0.870  1.00  0.00     0.278 C 
BRANCH  25  26
HETATM   26  C   UNL     1       2.196   3.894   1.244  1.00  0.00     0.242 C 
HETATM   27  N   UNL     1       3.197   3.856   0.297  1.00  0.00    -0.351 N 
HETATM   28  H   UNL     1       3.048   3.207  -0.470  1.00  0.00     0.163 HD
HETATM   29  O   UNL     1       2.268   4.512   2.302  1.00  0.00    -0.271 OA
BRANCH  27  30
HETATM   30  C   UNL     1       4.516   4.489   0.417  1.00  0.00     0.022 C 
HETATM   31  C   UNL     1       5.326   3.833   1.544  1.00  0.00     0.037 C 
HETATM   32  C   UNL     1       4.393   6.001   0.666  1.00  0.00     0.037 C 
HETATM   33  C   UNL     1       5.264   4.283  -0.913  1.00  0.00     0.037 C 
ENDBRANCH  27  30
ENDBRANCH  25  26
ENDBRANCH  24  25
ENDBRANCH   1  24
TORSDOF 8
