REMARK  8 active torsions:
REMARK  status: ('A' for Active; 'I' for Inactive)
REMARK    1  A    between atoms: O_2  and  C_3 
REMARK    2  A    between atoms: C_3  and  C_4 
REMARK    3  A    between atoms: C_4  and  C_5 
REMARK    4  A    between atoms: C_5  and  N_6 
REMARK    5  A    between atoms: N_6  and  C_8 
REMARK    6  A    between atoms: N_6  and  C_21 
REMARK    7  A    between atoms: C_8  and  C_9 
REMARK    8  A    between atoms: C_21  and  C_22 
ROOT
HETATM    1  N   UNL     1       6.271   0.256   2.989  1.00  0.00    -0.058 N 
HETATM    2  H   UNL     1       6.589  -0.631   2.569  1.00  0.00     0.280 HD
ENDROOT
BRANCH   1   3
HETATM    3  C   UNL     1       4.758   0.300   2.962  1.00  0.00     0.238 C 
BRANCH   3   4
HETATM    4  C   UNL     1       4.210   0.025   1.565  1.00  0.00     0.054 C 
BRANCH   4   5
HETATM    5  C   UNL     1       2.684   0.040   1.579  1.00  0.00     0.168 C 
BRANCH   5   6
HETATM    6  O   UNL     1       2.275   1.295   2.115  1.00  0.00    -0.396 OA
HETATM    7  C   UNL     1       0.855   1.428   2.121  1.00  0.00     0.201 C 
ENDBRANCH   5   6
ENDBRANCH   4   5
ENDBRANCH   3   4
ENDBRANCH   1   3
BRANCH   1   8
HETATM    8  C   UNL     1       6.957   1.367   2.184  1.00  0.00     0.313 C 
BRANCH   8   9
HETATM    9  C   UNL     1       6.692   2.777   2.707  1.00  0.00     0.133 A 
HETATM   10  N   UNL     1       7.110   3.118   3.887  1.00  0.00    -0.233 NA
HETATM   11  C   UNL     1       6.856   4.437   4.319  1.00  0.00     0.076 A 
HETATM   12  C   UNL     1       6.153   5.362   3.537  1.00  0.00     0.061 A 
HETATM   13  C   UNL     1       7.322   4.842   5.571  1.00  0.00     0.056 A 
HETATM   14  C   UNL     1       5.684   4.912   2.217  1.00  0.00     0.259 A 
HETATM   15  C   UNL     1       5.909   6.664   3.983  1.00  0.00     0.021 A 
HETATM   16  O   UNL     1       5.058   5.633   1.454  1.00  0.00    -0.267 OA
HETATM   17  N   UNL     1       5.993   3.617   1.884  1.00  0.00    -0.309 N 
HETATM   18  H   UNL     1       5.670   3.351   0.961  1.00  0.00     0.170 HD
HETATM   19  C   UNL     1       6.374   7.052   5.238  1.00  0.00     0.025 A 
HETATM   20  C   UNL     1       7.078   6.140   6.026  1.00  0.00     0.036 A 
HETATM   21 CL   UNL     1       7.649   6.616   7.576  1.00  0.00    -0.084 Cl
ENDBRANCH   8   9
ENDBRANCH   1   8
BRANCH   1  22
HETATM   22  C   UNL     1       6.766   0.166   4.442  1.00  0.00     0.313 C 
BRANCH  22  23
HETATM   23  C   UNL     1       8.280   0.058   4.531  1.00  0.00     0.133 A 
HETATM   24  N   UNL     1       8.886  -0.887   3.885  1.00  0.00    -0.233 NA
HETATM   25  C   UNL     1      10.291  -0.952   3.991  1.00  0.00     0.076 A 
HETATM   26  C   UNL     1      11.035  -0.010   4.714  1.00  0.00     0.061 A 
HETATM   27  C   UNL     1      10.971  -1.987   3.348  1.00  0.00     0.056 A 
HETATM   28  C   UNL     1      10.293   1.076   5.373  1.00  0.00     0.259 A 
HETATM   29  C   UNL     1      12.428  -0.085   4.799  1.00  0.00     0.021 A 
HETATM   30  O   UNL     1      10.845   1.996   5.960  1.00  0.00    -0.267 OA
HETATM   31  N   UNL     1       8.928   1.010   5.265  1.00  0.00    -0.309 N 
HETATM   32  H   UNL     1       8.439   1.798   5.675  1.00  0.00     0.170 HD
HETATM   33  C   UNL     1      13.094  -1.125   4.152  1.00  0.00     0.025 A 
HETATM   34  C   UNL     1      12.363  -2.070   3.430  1.00  0.00     0.036 A 
HETATM   35 CL   UNL     1      13.185  -3.350   2.627  1.00  0.00    -0.084 Cl
ENDBRANCH  22  23
ENDBRANCH   1  22
TORSDOF 8
