REMARK  10 active torsions:
REMARK  status: ('A' for Active; 'I' for Inactive)
REMARK    1  A    between atoms: N_2  and  C_4 
REMARK    2  A    between atoms: C_4  and  C_5 
REMARK    3  A    between atoms: C_5  and  C_6 
REMARK    4  A    between atoms: C_6  and  N_7 
REMARK       I    between atoms: N_7  and  C_8 
REMARK    5  A    between atoms: C_8  and  C_9 
REMARK    6  A    between atoms: C_9  and  N_10 
REMARK       I    between atoms: N_10  and  C_11 
REMARK    7  A    between atoms: C_11  and  C_12 
REMARK    8  A    between atoms: C_19  and  C_20 
REMARK    9  A    between atoms: C_21  and  C_22 
REMARK   10  A    between atoms: N_30  and  C_31 
ROOT
HETATM    1  C   UNL     1       3.392  -6.160  -1.638  1.00  0.00     0.104 C 
HETATM    2  C   UNL     1       4.204  -5.324  -2.313  1.00  0.00     0.050 C 
ENDROOT
BRANCH   1   3
HETATM    3  C   UNL     1       2.177  -5.541  -1.025  1.00  0.00     0.268 C 
HETATM    4  N   UNL     1       2.446  -4.601  -0.054  1.00  0.00    -0.356 N 
HETATM    5  H   UNL     1       3.401  -4.562   0.295  1.00  0.00     0.162 HD
HETATM    6  O   UNL     1       1.048  -5.862  -1.373  1.00  0.00    -0.266 OA
BRANCH   4   7
HETATM    7  C   UNL     1       1.391  -4.019   0.750  1.00  0.00     0.124 C 
BRANCH   7   8
HETATM    8  C   UNL     1       1.264  -2.513   0.523  1.00  0.00     0.047 C 
BRANCH   8   9
HETATM    9  C   UNL     1       0.772  -2.183  -0.885  1.00  0.00     0.235 C 
BRANCH   9  10
HETATM   10  N   UNL     1       0.725  -0.674  -1.090  1.00  0.00    -0.079 N 
HETATM   11  C   UNL     1      -0.441  -0.012  -0.404  1.00  0.00     0.269 C 
HETATM   12  H   UNL     1       1.582  -0.276  -0.682  1.00  0.00     0.278 HD
HETATM   13  C   UNL     1       0.756  -0.313  -2.554  1.00  0.00     0.269 C 
ENDBRANCH   9  10
ENDBRANCH   8   9
ENDBRANCH   7   8
ENDBRANCH   4   7
ENDBRANCH   1   3
BRANCH   1  14
HETATM   14  N   UNL     1       3.497  -7.536  -1.601  1.00  0.00    -0.318 N 
HETATM   15  C   UNL     1       4.670  -8.180  -1.234  1.00  0.00     0.256 C 
HETATM   16  O   UNL     1       5.665  -7.607  -0.800  1.00  0.00    -0.267 OA
HETATM   17  H   UNL     1       2.639  -8.050  -1.414  1.00  0.00     0.169 HD
BRANCH  15  18
HETATM   18  C   UNL     1       4.630  -9.664  -1.260  1.00  0.00     0.032 A 
HETATM   19  C   UNL     1       3.930 -10.354  -2.256  1.00  0.00     0.017 A 
HETATM   20  C   UNL     1       3.934 -11.751  -2.263  1.00  0.00     0.001 A 
HETATM   21  C   UNL     1       4.632 -12.456  -1.281  1.00  0.00     0.000 A 
HETATM   22  C   UNL     1       5.338 -11.768  -0.294  1.00  0.00     0.001 A 
HETATM   23  C   UNL     1       5.345 -10.373  -0.287  1.00  0.00     0.017 A 
ENDBRANCH  15  18
ENDBRANCH   1  14
BRANCH   2  24
HETATM   24  C   UNL     1       5.182  -5.703  -3.277  1.00  0.00     0.015 A 
HETATM   25  C   UNL     1       4.997  -6.124  -4.625  1.00  0.00     0.099 A 
HETATM   26  N   UNL     1       6.185  -6.376  -5.193  1.00  0.00    -0.166 NA
HETATM   27  N   UNL     1       7.117  -6.167  -4.228  1.00  0.00    -0.244 N 
HETATM   28  C   UNL     1       6.539  -5.706  -3.067  1.00  0.00     0.132 A 
BRANCH  25  29
HETATM   29  C   UNL     1       3.761  -6.293  -5.401  1.00  0.00    -0.005 A 
HETATM   30  C   UNL     1       2.634  -5.486  -5.184  1.00  0.00     0.015 A 
HETATM   31  C   UNL     1       1.465  -5.670  -5.930  1.00  0.00     0.020 A 
HETATM   32  C   UNL     1       1.420  -6.655  -6.913  1.00  0.00     0.011 A 
HETATM   33 BR   UNL     1      -0.158  -6.894  -7.925  1.00  0.00    -0.051 Br
HETATM   34  C   UNL     1       2.531  -7.456  -7.158  1.00  0.00     0.020 A 
HETATM   35  C   UNL     1       3.695  -7.273  -6.404  1.00  0.00     0.015 A 
ENDBRANCH  25  29
BRANCH  27  36
HETATM   36  C   UNL     1       8.495  -6.402  -4.490  1.00  0.00     0.058 A 
HETATM   37  C   UNL     1       8.896  -6.778  -5.783  1.00  0.00     0.031 A 
HETATM   38  C   UNL     1      10.243  -7.008  -6.065  1.00  0.00     0.002 A 
HETATM   39  C   UNL     1      11.199  -6.872  -5.061  1.00  0.00     0.000 A 
HETATM   40  C   UNL     1      10.809  -6.507  -3.773  1.00  0.00     0.002 A 
HETATM   41  C   UNL     1       9.461  -6.271  -3.483  1.00  0.00     0.031 A 
ENDBRANCH  27  36
ENDBRANCH   2  24
TORSDOF 10
