REMARK  4 active torsions:
REMARK  status: ('A' for Active; 'I' for Inactive)
REMARK    1  A    between atoms: C_5  and  C_6 
REMARK    2  A    between atoms: C_6  and  N_7 
REMARK    3  A    between atoms: C_6  and  C_18 
REMARK    4  A    between atoms: N_7  and  C_8 
ROOT
HETATM    1  C   UNL     1      -1.457  -2.818  -0.343  1.00  0.00     0.288 C 
ENDROOT
BRANCH   1   2
HETATM    2  C   UNL     1      -0.945  -3.384  -1.657  1.00  0.00    -0.003 A 
HETATM    3  C   UNL     1      -0.676  -4.736  -1.855  1.00  0.00     0.126 A 
HETATM    4  N   UNL     1      -0.205  -5.265  -3.006  1.00  0.00    -0.272 NA
HETATM    5  C   UNL     1      -0.035  -4.418  -4.042  1.00  0.00     0.116 A 
HETATM    6  C   UNL     1      -0.298  -3.061  -3.970  1.00  0.00     0.020 A 
HETATM    7  C   UNL     1      -0.757  -2.541  -2.762  1.00  0.00     0.012 A 
ENDBRANCH   1   2
BRANCH   1   8
HETATM    8  N   UNL     1      -0.947  -3.477   0.876  1.00  0.00     0.101 N 
HETATM    9  H   UNL     1      -1.368  -4.404   0.942  1.00  0.00     0.317 HD
BRANCH   8  10
HETATM   10  C   UNL     1       0.505  -3.515   1.063  1.00  0.00     0.225 C 
HETATM   11  C   UNL     1       1.120  -2.107   1.206  1.00  0.00     0.069 C 
HETATM   12  C   UNL     1       2.597  -2.225   1.536  1.00  0.00     0.190 C 
HETATM   13  N   UNL     1       2.745  -3.001   2.815  1.00  0.00    -0.067 N 
HETATM   14  C   UNL     1       3.333  -0.946   1.879  1.00  0.00     0.035 C 
HETATM   15  H   UNL     1       2.159  -2.547   3.532  1.00  0.00     0.280 HD
HETATM   16  C   UNL     1       2.270  -4.411   2.683  1.00  0.00     0.237 C 
HETATM   17  C   UNL     1       4.173  -2.794   3.249  1.00  0.00     0.235 C 
HETATM   18  C   UNL     1       0.789  -4.373   2.318  1.00  0.00     0.063 C 
HETATM   19  C   UNL     1       4.565  -1.453   2.627  1.00  0.00     0.030 C 
ENDBRANCH   8  10
ENDBRANCH   1   8
BRANCH   1  20
HETATM   20  C   UNL     1      -2.983  -2.744  -0.261  1.00  0.00    -0.021 A 
HETATM   21  C   UNL     1      -3.588  -1.593   0.281  1.00  0.00     0.012 A 
HETATM   22  C   UNL     1      -4.977  -1.501   0.396  1.00  0.00     0.043 A 
HETATM   23  C   UNL     1      -5.770  -2.560  -0.019  1.00  0.00     0.116 A 
HETATM   24  F   UNL     1      -7.101  -2.473   0.094  1.00  0.00    -0.206 F 
HETATM   25  C   UNL     1      -5.202  -3.713  -0.545  1.00  0.00     0.043 A 
HETATM   26  C   UNL     1      -3.813  -3.809  -0.661  1.00  0.00     0.012 A 
ENDBRANCH   1  20
TORSDOF 4
