REMARK  4 active torsions:
REMARK  status: ('A' for Active; 'I' for Inactive)
REMARK    1  A    between atoms: C_2  and  C_3 
REMARK    2  A    between atoms: C_3  and  N_4 
REMARK    3  A    between atoms: C_3  and  C_18 
REMARK       I    between atoms: N_4  and  C_5 
REMARK    4  A    between atoms: C_5  and  C_6 
ROOT
HETATM    1  N   UNL     1       4.239   0.772   1.089  1.00  0.00    -0.344 N 
HETATM    2  C   UNL     1       4.866  -0.359   0.635  1.00  0.00     0.273 C 
HETATM    3  O   UNL     1       4.308  -1.423   0.429  1.00  0.00    -0.266 OA
HETATM    4  H   UNL     1       4.816   1.590   1.282  1.00  0.00     0.163 HD
ENDROOT
BRANCH   1   5
HETATM    5  C   UNL     1       2.835   0.851   1.426  1.00  0.00     0.158 C 
BRANCH   5   6
HETATM    6  C   UNL     1       2.514   0.423   2.884  1.00  0.00     0.008 C 
HETATM    7  C   UNL     1       3.354   1.155   3.939  1.00  0.00     0.012 C 
HETATM    8  C   UNL     1       2.648  -1.089   3.085  1.00  0.00     0.012 C 
ENDBRANCH   5   6
BRANCH   5   9
HETATM    9  C   UNL     1       2.412   2.275   1.179  1.00  0.00     0.128 A 
HETATM   10  N   UNL     1       3.159   3.357   1.317  1.00  0.00    -0.231 NA
HETATM   11  C   UNL     1       2.336   4.415   1.018  1.00  0.00     0.085 A 
HETATM   12  C   UNL     1       1.063   3.973   0.678  1.00  0.00     0.062 A 
HETATM   13  C   UNL     1       2.608   5.790   1.020  1.00  0.00     0.034 A 
HETATM   14  N   UNL     1       1.142   2.607   0.775  1.00  0.00    -0.341 N 
HETATM   15  C   UNL     1       0.020   4.835   0.333  1.00  0.00     0.032 A 
HETATM   16  H   UNL     1       0.389   1.959   0.595  1.00  0.00     0.167 HD
HETATM   17  C   UNL     1       0.308   6.205   0.344  1.00  0.00     0.002 A 
HETATM   18  C   UNL     1       1.579   6.678   0.681  1.00  0.00     0.002 A 
ENDBRANCH   5   9
ENDBRANCH   1   5
BRANCH   2  19
HETATM   19  C   UNL     1       6.380  -0.171   0.432  1.00  0.00     0.155 A 
HETATM   20  N   UNL     1       6.910   0.816   1.104  1.00  0.00    -0.166 NA
HETATM   21  N   UNL     1       8.245   1.044   0.979  1.00  0.00    -0.242 N 
HETATM   22  C   UNL     1       9.120   0.315   0.214  1.00  0.00     0.272 A 
HETATM   23  H   UNL     1       8.628   1.819   1.512  1.00  0.00     0.192 HD
HETATM   24  O   UNL     1      10.317   0.573   0.161  1.00  0.00    -0.266 OA
HETATM   25  C   UNL     1       8.536  -0.799  -0.552  1.00  0.00     0.046 A 
HETATM   26  C   UNL     1       7.165  -1.050  -0.467  1.00  0.00     0.016 A 
HETATM   27  C   UNL     1       9.363  -1.587  -1.364  1.00  0.00     0.018 A 
HETATM   28  C   UNL     1       6.623  -2.095  -1.225  1.00  0.00     0.015 A 
HETATM   29  C   UNL     1       7.448  -2.885  -2.034  1.00  0.00     0.001 A 
HETATM   30  C   UNL     1       8.817  -2.634  -2.102  1.00  0.00     0.001 A 
ENDBRANCH   2  19
TORSDOF 4
