REMARK  8 active torsions:
REMARK  status: ('A' for Active; 'I' for Inactive)
REMARK    1  A    between atoms: C_4  and  C_5 
REMARK    2  A    between atoms: C_5  and  N_6 
REMARK    3  A    between atoms: N_10  and  C_11 
REMARK    4  A    between atoms: C_13  and  N_14 
REMARK    5  A    between atoms: N_17  and  C_19 
REMARK    6  A    between atoms: C_19  and  C_20 
REMARK    7  A    between atoms: C_29  and  N_30 
REMARK    8  A    between atoms: C_31  and  N_32 
ROOT
HETATM    1  C   UNL     1       3.352  -5.171   1.955  1.00  0.00     0.181 A 
HETATM    2  N   UNL     1       3.819  -6.352   1.482  1.00  0.00    -0.042 NA
HETATM    3  C   UNL     1       3.381  -7.524   1.970  1.00  0.00     0.728 A 
HETATM    4  N   UNL     1       2.509  -7.609   2.974  1.00  0.00    -0.048 NA
HETATM    5  C   UNL     1       2.030  -6.463   3.482  1.00  0.00     0.157 A 
HETATM    6  C   UNL     1       2.449  -5.232   3.003  1.00  0.00     0.189 A 
ENDROOT
BRANCH   1   7
HETATM    7  N   UNL     1       3.850  -4.054   1.306  1.00  0.00    -0.360 N 
HETATM    8  C   UNL     1       3.802  -2.642   1.739  1.00  0.00     0.152 C 
HETATM    9  C   UNL     1       2.877  -1.810   0.813  1.00  0.00     0.255 C 
HETATM   10  N   UNL     1       3.319  -1.973  -0.646  1.00  0.00    -0.064 N 
HETATM   11  H   UNL     1       4.282  -1.617  -0.684  1.00  0.00     0.280 HD
HETATM   12  C   UNL     1       3.416  -3.439  -1.056  1.00  0.00     0.255 C 
HETATM   13  C   UNL     1       4.336  -4.216  -0.085  1.00  0.00     0.152 C 
BRANCH  10  14
HETATM   14  C   UNL     1       2.561  -1.105  -1.635  1.00  0.00     0.273 C 
BRANCH  14  15
HETATM   15  C   UNL     1       1.079  -0.922  -1.437  1.00  0.00    -0.033 A 
HETATM   16  C   UNL     1       0.557   0.380  -1.341  1.00  0.00     0.009 A 
HETATM   17  C   UNL     1      -0.816   0.595  -1.199  1.00  0.00     0.001 A 
HETATM   18  C   UNL     1      -1.688  -0.487  -1.146  1.00  0.00     0.000 A 
HETATM   19  C   UNL     1      -1.191  -1.782  -1.252  1.00  0.00     0.001 A 
HETATM   20  C   UNL     1       0.180  -1.999  -1.411  1.00  0.00     0.009 A 
ENDBRANCH  14  15
ENDBRANCH  10  14
ENDBRANCH   1   7
BRANCH   6  21
HETATM   21  N   UNL     1       1.822  -4.071   3.531  1.00  0.00    -0.108 N 
HETATM   22  O   UNL     1       0.938  -3.554   2.836  1.00  0.00    -0.532 OA
HETATM   23  O   UNL     1       2.246  -3.629   4.605  1.00  0.00    -0.532 OA
ENDBRANCH   6  21
BRANCH   3  24
HETATM   24  N   UNL     1       3.834  -8.689   1.362  1.00  0.00    -0.211 N 
HETATM   25  C   UNL     1       3.096  -9.921   1.686  1.00  0.00     0.169 C 
HETATM   26  C   UNL     1       3.617 -10.594   2.972  1.00  0.00     0.255 C 
HETATM   27  N   UNL     1       5.130 -10.808   2.863  1.00  0.00    -0.064 N 
HETATM   28  H   UNL     1       5.283 -11.405   2.041  1.00  0.00     0.280 HD
HETATM   29  C   UNL     1       5.844  -9.483   2.610  1.00  0.00     0.255 C 
HETATM   30  C   UNL     1       5.298  -8.818   1.323  1.00  0.00     0.169 C 
BRANCH  27  31
HETATM   31  C   UNL     1       5.704 -11.563   4.039  1.00  0.00     0.273 C 
BRANCH  31  32
HETATM   32  C   UNL     1       5.249 -12.997   4.077  1.00  0.00    -0.033 A 
HETATM   33  C   UNL     1       5.687 -13.911   3.105  1.00  0.00     0.009 A 
HETATM   34  C   UNL     1       5.228 -15.229   3.114  1.00  0.00     0.001 A 
HETATM   35  C   UNL     1       4.333 -15.649   4.095  1.00  0.00     0.000 A 
HETATM   36  C   UNL     1       3.901 -14.756   5.073  1.00  0.00     0.001 A 
HETATM   37  C   UNL     1       4.355 -13.436   5.066  1.00  0.00     0.009 A 
ENDBRANCH  31  32
ENDBRANCH  27  31
ENDBRANCH   3  24
BRANCH   5  38
HETATM   38  N   UNL     1       1.144  -6.635   4.539  1.00  0.00    -0.284 NA
HETATM   39  H   UNL     1       0.954  -7.621   4.698  1.00  0.00     0.125 HD
HETATM   40  H   UNL     1       0.278  -6.103   4.491  1.00  0.00     0.125 HD
ENDBRANCH   5  38
TORSDOF 8
