REMARK  5 active torsions:
REMARK  status: ('A' for Active; 'I' for Inactive)
REMARK    1  A    between atoms: C_2  and  C_3 
REMARK    2  A    between atoms: C_7  and  C_8 
REMARK       I    between atoms: C_8  and  N_9 
REMARK    3  A    between atoms: N_9  and  C_10 
REMARK    4  A    between atoms: C_12  and  N_13 
REMARK       I    between atoms: N_13  and  C_14 
REMARK    5  A    between atoms: C_14  and  C_15 
ROOT
HETATM    1  C   UNL     1       5.055   0.107   4.165  1.00  0.00     0.037 A 
HETATM    2  C   UNL     1       3.872  -0.571   4.485  1.00  0.00     0.059 A 
HETATM    3  C   UNL     1       3.797  -1.968   4.403  1.00  0.00     0.037 A 
HETATM    4  C   UNL     1       4.927  -2.686   3.994  1.00  0.00     0.029 A 
HETATM    5  C   UNL     1       6.102  -2.020   3.648  1.00  0.00     0.004 A 
HETATM    6  C   UNL     1       6.163  -0.629   3.729  1.00  0.00     0.029 A 
ENDROOT
BRANCH   1   7
HETATM    7  N   UNL     1       5.213   1.509   4.248  1.00  0.00    -0.322 N 
HETATM    8  C   UNL     1       4.338   2.427   4.795  1.00  0.00     0.274 C 
HETATM    9  O   UNL     1       3.287   2.160   5.364  1.00  0.00    -0.266 OA
HETATM   10  H   UNL     1       6.095   1.872   3.917  1.00  0.00     0.169 HD
BRANCH   8  11
HETATM   11  C   UNL     1       4.766   3.802   4.685  1.00  0.00     0.120 A 
HETATM   12  N   UNL     1       4.018   4.812   5.232  1.00  0.00    -0.273 N 
HETATM   13  N   UNL     1       4.535   6.038   5.053  1.00  0.00    -0.179 NA
HETATM   14  H   UNL     1       3.143   4.710   5.739  1.00  0.00     0.189 HD
HETATM   15  C   UNL     1       5.652   5.818   4.353  1.00  0.00     0.056 A 
HETATM   16  C   UNL     1       5.844   4.437   4.100  1.00  0.00     0.065 A 
BRANCH  15  17
HETATM   17  C   UNL     1       6.516   6.957   3.933  1.00  0.00     0.056 C 
HETATM   18  C   UNL     1       6.215   7.416   2.515  1.00  0.00     0.011 C 
ENDBRANCH  15  17
ENDBRANCH   8  11
ENDBRANCH   1   7
BRANCH   3  19
HETATM   19  N   UNL     1       2.647  -2.720   4.735  1.00  0.00    -0.323 N 
HETATM   20  C   UNL     1       1.392  -2.234   5.058  1.00  0.00     0.256 C 
HETATM   21  O   UNL     1       1.032  -1.063   5.041  1.00  0.00    -0.267 OA
HETATM   22  H   UNL     1       2.782  -3.720   4.778  1.00  0.00     0.169 HD
BRANCH  20  23
HETATM   23  C   UNL     1       0.398  -3.259   5.488  1.00  0.00     0.032 A 
HETATM   24  C   UNL     1      -0.552  -2.884   6.448  1.00  0.00     0.017 A 
HETATM   25  C   UNL     1      -1.500  -3.804   6.897  1.00  0.00     0.001 A 
HETATM   26  C   UNL     1      -1.509  -5.100   6.384  1.00  0.00     0.000 A 
HETATM   27  C   UNL     1      -0.579  -5.474   5.413  1.00  0.00     0.001 A 
HETATM   28  C   UNL     1       0.371  -4.555   4.958  1.00  0.00     0.017 A 
ENDBRANCH  20  23
ENDBRANCH   3  19
TORSDOF 5
