REMARK  5 active torsions:
REMARK  status: ('A' for Active; 'I' for Inactive)
REMARK    1  A    between atoms: C_2  and  C_3 
REMARK       I    between atoms: C_3  and  N_4 
REMARK    2  A    between atoms: N_4  and  C_5 
REMARK    3  A    between atoms: C_7  and  N_8 
REMARK       I    between atoms: N_8  and  C_9 
REMARK       I    between atoms: C_9  and  N_10 
REMARK    4  A    between atoms: N_10  and  C_11 
REMARK    5  A    between atoms: C_11  and  C_12 
ROOT
HETATM    1  N   UNL     1      -1.442  -0.846   1.740  1.00  0.00    -0.306 N 
HETATM    2  C   UNL     1      -0.821  -2.019   1.538  1.00  0.00     0.321 C 
HETATM    3  N   UNL     1       0.439  -2.167   1.116  1.00  0.00    -0.338 N 
HETATM    4  O   UNL     1      -1.440  -3.048   1.829  1.00  0.00    -0.247 OA
HETATM    5  H   UNL     1      -2.267  -1.001   2.315  1.00  0.00     0.171 HD
HETATM    6  H   UNL     1       0.676  -3.149   1.084  1.00  0.00     0.164 HD
ENDROOT
BRANCH   1   7
HETATM    7  C   UNL     1      -1.312   0.478   1.291  1.00  0.00     0.077 C 
HETATM    8  C   UNL     1      -0.509   0.899   0.232  1.00  0.00     0.062 C 
HETATM    9  C   UNL     1      -0.383   2.261  -0.078  1.00  0.00     0.037 C 
HETATM   10  C   UNL     1      -1.182   3.195   0.594  1.00  0.00     0.032 C 
HETATM   11  C   UNL     1      -2.065   2.779   1.588  1.00  0.00     0.047 C 
HETATM   12  C   UNL     1      -2.112   1.434   1.932  1.00  0.00     0.143 C 
HETATM   13  F   UNL     1      -2.947   1.051   2.912  1.00  0.00    -0.204 F 
BRANCH   9  14
HETATM   14  N   UNL     1       0.552   2.777  -1.001  1.00  0.00    -0.327 N 
HETATM   15  C   UNL     1       1.547   2.081  -1.665  1.00  0.00     0.221 C 
HETATM   16  O   UNL     1       1.679   0.863  -1.717  1.00  0.00    -0.273 OA
HETATM   17  H   UNL     1       0.562   3.784  -1.107  1.00  0.00     0.169 HD
BRANCH  15  18
HETATM   18  C   UNL     1       2.559   2.997  -2.327  1.00  0.00     0.098 C 
HETATM   19  C   UNL     1       3.428   3.690  -1.289  1.00  0.00     0.014 C 
ENDBRANCH  15  18
ENDBRANCH   9  14
ENDBRANCH   1   7
BRANCH   3  20
HETATM   20  C   UNL     1       1.569  -1.265   1.100  1.00  0.00     0.167 C 
BRANCH  20  21
HETATM   21  C   UNL     1       2.830  -2.024   1.353  1.00  0.00     0.009 A 
HETATM   22  C   UNL     1       3.816  -1.753   2.343  1.00  0.00     0.060 A 
HETATM   23  C   UNL     1       3.816  -0.673   3.361  1.00  0.00     0.073 C 
HETATM   24  N   UNL     1       4.850  -2.599   2.264  1.00  0.00    -0.179 NA
HETATM   25  N   UNL     1       4.543  -3.396   1.232  1.00  0.00    -0.282 N 
HETATM   26  H   UNL     1       5.204  -4.122   0.976  1.00  0.00     0.189 HD
HETATM   27  C   UNL     1       3.354  -3.089   0.635  1.00  0.00     0.034 A 
HETATM   28  C   UNL     1       2.859  -3.825  -0.553  1.00  0.00     0.070 C 
ENDBRANCH  20  21
ENDBRANCH   3  20
TORSDOF 5
