REMARK  8 active torsions:
REMARK  status: ('A' for Active; 'I' for Inactive)
REMARK    1  A    between atoms: C_7  and  S_8 
REMARK    2  A    between atoms: S_8  and  N_9 
REMARK    3  A    between atoms: N_9  and  C_10 
REMARK    4  A    between atoms: C_19  and  N_20 
REMARK    5  A    between atoms: C_25  and  N_26 
REMARK    6  A    between atoms: C_30  and  S_31 
REMARK    7  A    between atoms: S_31  and  N_32 
REMARK    8  A    between atoms: N_32  and  C_33 
ROOT
HETATM    1  C   UNL     1       2.437   1.178  -0.657  1.00  0.00     0.041 A 
HETATM    2  C   UNL     1       1.123   0.741  -0.649  1.00  0.00     0.030 A 
HETATM    3  C   UNL     1       0.709  -0.604  -0.535  1.00  0.00     0.025 A 
HETATM    4  C   UNL     1      -0.762  -0.636  -0.611  1.00  0.00     0.025 C 
HETATM    5  C   UNL     1      -1.233   0.693  -0.547  1.00  0.00     0.030 C 
HETATM    6  C   UNL     1      -2.566   1.068  -0.494  1.00  0.00     0.041 C 
HETATM    7  C   UNL     1      -3.509   0.045  -0.552  1.00  0.00     0.077 C 
HETATM    8  C   UNL     1      -3.109  -1.284  -0.765  1.00  0.00     0.061 C 
HETATM    9  C   UNL     1      -1.737  -1.615  -0.806  1.00  0.00     0.116 C 
HETATM   10  C   UNL     1      -0.074   1.595  -0.613  1.00  0.00     0.194 C 
HETATM   11  O   UNL     1      -0.098   2.806  -0.613  1.00  0.00    -0.287 OA
HETATM   12  C   UNL     1       1.721  -1.531  -0.276  1.00  0.00     0.116 A 
HETATM   13  C   UNL     1       3.078  -1.137  -0.275  1.00  0.00     0.062 A 
HETATM   14  C   UNL     1       3.420   0.212  -0.470  1.00  0.00     0.082 A 
ENDROOT
BRANCH   7  15
HETATM   15  S   UNL     1      -5.239   0.449  -0.470  1.00  0.00     0.241 S 
HETATM   16  O   UNL     1      -5.379   1.809  -0.939  1.00  0.00    -0.206 OA
HETATM   17  O   UNL     1      -5.988  -0.643  -1.045  1.00  0.00    -0.206 OA
BRANCH  15  18
HETATM   18  N   UNL     1      -5.491   0.503   1.198  1.00  0.00    -0.211 NA
HETATM   19  H   UNL     1      -5.783   1.451   1.448  1.00  0.00     0.140 HD
BRANCH  18  20
HETATM   20  C   UNL     1      -6.281  -0.574   1.850  1.00  0.00     0.071 C 
HETATM   21  C   UNL     1      -5.501  -1.888   1.940  1.00  0.00     0.020 C 
HETATM   22  C   UNL     1      -4.301  -1.802   2.881  1.00  0.00     0.002 C 
HETATM   23  C   UNL     1      -4.720  -1.340   4.272  1.00  0.00     0.000 C 
HETATM   24  C   UNL     1      -5.493  -0.027   4.220  1.00  0.00     0.002 C 
HETATM   25  C   UNL     1      -6.680  -0.102   3.259  1.00  0.00     0.020 C 
ENDBRANCH  18  20
ENDBRANCH  15  18
ENDBRANCH   7  15
BRANCH   9  26
HETATM   26  N   UNL     1      -1.402  -2.965  -1.236  1.00  0.00    -0.115 N 
HETATM   27  O   UNL     1      -0.449  -3.079  -2.018  1.00  0.00    -0.532 OA
HETATM   28  O   UNL     1      -2.117  -3.889  -0.830  1.00  0.00    -0.532 OA
ENDBRANCH   9  26
BRANCH  12  29
HETATM   29  N   UNL     1       1.432  -2.865   0.232  1.00  0.00    -0.115 N 
HETATM   30  O   UNL     1       0.480  -2.964   1.018  1.00  0.00    -0.532 OA
HETATM   31  O   UNL     1       2.191  -3.783  -0.098  1.00  0.00    -0.532 OA
ENDBRANCH  12  29
BRANCH  14  32
HETATM   32  S   UNL     1       5.129   0.688  -0.398  1.00  0.00     0.259 S 
HETATM   33  O   UNL     1       5.865  -0.316  -1.131  1.00  0.00    -0.201 OA
HETATM   34  O   UNL     1       5.232   2.096  -0.701  1.00  0.00    -0.201 OA
BRANCH  32  35
HETATM   35  N   UNL     1       5.495   0.445   1.230  1.00  0.00    -0.311 N 
HETATM   36  H   UNL     1       6.307  -0.172   1.305  1.00  0.00     0.172 HD
BRANCH  35  37
HETATM   37  C   UNL     1       5.465   1.590   2.172  1.00  0.00     0.093 C 
HETATM   38  C   UNL     1       4.033   1.991   2.537  1.00  0.00     0.026 C 
HETATM   39  C   UNL     1       3.308   0.918   3.348  1.00  0.00     0.002 C 
HETATM   40  C   UNL     1       4.092   0.549   4.604  1.00  0.00     0.000 C 
HETATM   41  C   UNL     1       5.526   0.143   4.278  1.00  0.00     0.002 C 
HETATM   42  C   UNL     1       6.242   1.204   3.442  1.00  0.00     0.026 C 
ENDBRANCH  35  37
ENDBRANCH  32  35
ENDBRANCH  14  32
TORSDOF 8
