REMARK  3 active torsions:
REMARK  status: ('A' for Active; 'I' for Inactive)
REMARK    1  A    between atoms: C_4  and  N_5 
REMARK       I    between atoms: N_5  and  C_6 
REMARK    2  A    between atoms: C_6  and  C_7 
REMARK    3  A    between atoms: C_7  and  C_8 
ROOT
HETATM    1  C   UNL     1       2.953   2.682   0.057  1.00  0.00     0.286 C 
HETATM    2  N   UNL     1       2.328   3.279   1.317  1.00  0.00    -0.056 N 
HETATM    3  H   UNL     1       1.549   2.633   1.573  1.00  0.00     0.278 HD
HETATM    4  H   UNL     1       2.982   3.247   2.107  1.00  0.00     0.278 HD
HETATM    5  C   UNL     1       1.720   4.642   1.157  1.00  0.00     0.209 C 
HETATM    6  C   UNL     1       0.756   4.638  -0.053  1.00  0.00     0.115 C 
HETATM    7  N   UNL     1       1.372   4.088  -1.259  1.00  0.00    -0.353 N 
HETATM    8  C   UNL     1       2.170   2.972  -1.239  1.00  0.00     0.249 C 
HETATM    9  O   UNL     1       2.317   2.302  -2.256  1.00  0.00    -0.271 OA
HETATM   10  C   UNL     1       2.819   5.699   1.047  1.00  0.00     0.035 C 
HETATM   11  C   UNL     1       2.215   7.082   0.814  1.00  0.00     0.002 C 
HETATM   12  C   UNL     1       1.304   7.098  -0.411  1.00  0.00     0.002 C 
HETATM   13  C   UNL     1       0.203   6.042  -0.314  1.00  0.00     0.027 C 
HETATM   14  H   UNL     1       0.859   4.176  -2.135  1.00  0.00     0.163 HD
ENDROOT
BRANCH   1  15
HETATM   15  C   UNL     1       3.167   1.167   0.213  1.00  0.00     0.146 C 
BRANCH  15  16
HETATM   16  C   UNL     1       1.848   0.485   0.517  1.00  0.00     0.224 C 
HETATM   17  N   UNL     1       1.793  -0.833   0.139  1.00  0.00    -0.327 N 
HETATM   18  H   UNL     1       2.579  -1.217  -0.376  1.00  0.00     0.169 HD
HETATM   19  O   UNL     1       0.986   1.131   1.115  1.00  0.00    -0.273 OA
BRANCH  17  20
HETATM   20  C   UNL     1       0.721  -1.734   0.339  1.00  0.00     0.035 A 
HETATM   21  C   UNL     1      -0.459  -1.410   1.013  1.00  0.00     0.036 A 
HETATM   22  C   UNL     1      -1.480  -2.360   1.181  1.00  0.00    -0.060 A 
HETATM   23  C   UNL     1      -2.749  -1.980   1.889  1.00  0.00     0.048 C 
HETATM   24  C   UNL     1      -1.317  -3.642   0.650  1.00  0.00     0.007 A 
HETATM   25  C   UNL     1      -0.143  -3.975  -0.023  1.00  0.00     0.003 A 
HETATM   26  C   UNL     1       0.871  -3.027  -0.175  1.00  0.00     0.029 A 
ENDBRANCH  17  20
ENDBRANCH  15  16
ENDBRANCH   1  15
TORSDOF 3
