REMARK  11 active torsions:
REMARK  status: ('A' for Active; 'I' for Inactive)
REMARK    1  A    between atoms: C_2  and  N_3 
REMARK    2  A    between atoms: N_3  and  C_5 
REMARK    3  A    between atoms: N_3  and  C_32 
REMARK    4  A    between atoms: C_5  and  C_6 
REMARK    5  A    between atoms: N_7  and  C_8 
REMARK    6  A    between atoms: C_12  and  N_13 
REMARK    7  A    between atoms: C_16  and  C_17 
REMARK       I    between atoms: C_17  and  N_18 
REMARK    8  A    between atoms: N_18  and  N_19 
REMARK    9  A    between atoms: C_20  and  C_21 
REMARK   10  A    between atoms: C_25  and  O_26 
REMARK   11  A    between atoms: C_27  and  O_28 
ROOT
HETATM    1  C   UNL     1       0.735   2.277   0.791  1.00  0.00     0.096 A 
HETATM    2  N   UNL     1      -0.233   1.284   0.906  1.00  0.00    -0.215 N 
HETATM    3  N   UNL     1      -1.458   1.872   0.952  1.00  0.00     0.012 NA
HETATM    4  N   UNL     1      -1.323   3.176   0.771  1.00  0.00    -0.152 NA
HETATM    5  C   UNL     1       0.008   3.453   0.661  1.00  0.00     0.170 A 
ENDROOT
BRANCH   5   6
HETATM    6  C   UNL     1       0.545   4.788   0.436  1.00  0.00     0.293 C 
HETATM    7  N   UNL     1      -0.403   5.793   0.465  1.00  0.00    -0.242 N 
HETATM    8  H   UNL     1      -1.382   5.574   0.636  1.00  0.00     0.192 HD
HETATM    9  O   UNL     1       1.745   4.938   0.217  1.00  0.00    -0.264 OA
BRANCH   7  10
HETATM   10  N   UNL     1      -0.006   7.083   0.296  1.00  0.00    -0.184 NA
HETATM   11  C   UNL     1      -0.940   7.980   0.305  1.00  0.00     0.150 C 
BRANCH  11  12
HETATM   12  C   UNL     1      -0.617   9.414   0.151  1.00  0.00    -0.013 A 
HETATM   13  C   UNL     1       0.716   9.832   0.087  1.00  0.00     0.035 A 
HETATM   14  C   UNL     1       1.001  11.188  -0.045  1.00  0.00     0.047 A 
HETATM   15 BR   UNL     1       2.813  11.738  -0.120  1.00  0.00    -0.048 Br
HETATM   16  C   UNL     1      -0.038  12.120  -0.117  1.00  0.00     0.116 A 
HETATM   17  C   UNL     1      -1.378  11.704  -0.061  1.00  0.00     0.103 A 
HETATM   18  C   UNL     1      -1.664  10.342   0.079  1.00  0.00     0.052 A 
BRANCH  16  19
HETATM   19  O   UNL     1       0.228  13.460  -0.247  1.00  0.00    -0.357 OA
HETATM   20  H   UNL     1       1.194  13.580  -0.260  1.00  0.00     0.218 HD
ENDBRANCH  16  19
BRANCH  17  21
HETATM   21  O   UNL     1      -2.318  12.697  -0.142  1.00  0.00    -0.353 OA
HETATM   22  C   UNL     1      -3.686  12.320  -0.196  1.00  0.00     0.210 C 
ENDBRANCH  17  21
ENDBRANCH  11  12
ENDBRANCH   7  10
ENDBRANCH   5   6
BRANCH   1  23
HETATM   23  C   UNL     1       2.202   2.074   0.897  1.00  0.00     0.296 C 
BRANCH  23  24
HETATM   24  N   UNL     1       2.898   1.553  -0.349  1.00  0.00    -0.066 N 
HETATM   25  H   UNL     1       2.470   0.640  -0.562  1.00  0.00     0.280 HD
BRANCH  24  26
HETATM   26  C   UNL     1       4.379   1.308  -0.083  1.00  0.00     0.231 C 
HETATM   27  C   UNL     1       4.592   0.073   0.775  1.00  0.00     0.034 C 
ENDBRANCH  24  26
BRANCH  24  28
HETATM   28  C   UNL     1       2.702   2.467  -1.550  1.00  0.00     0.231 C 
HETATM   29  C   UNL     1       2.992   1.731  -2.849  1.00  0.00     0.034 C 
ENDBRANCH  24  28
ENDBRANCH  23  24
ENDBRANCH   1  23
BRANCH   2  30
HETATM   30  C   UNL     1      -0.061  -0.121   0.919  1.00  0.00     0.225 A 
HETATM   31  N   UNL     1       1.145  -0.645   0.681  1.00  0.00    -0.081 NA
HETATM   32  O   UNL     1       0.924  -2.024   0.755  1.00  0.00    -0.103 OA
HETATM   33  N   UNL     1      -0.410  -2.305   1.009  1.00  0.00    -0.083 NA
HETATM   34  C   UNL     1      -1.022  -1.127   1.108  1.00  0.00     0.201 A 
BRANCH  34  35
HETATM   35  N   UNL     1      -2.331  -0.967   1.355  1.00  0.00    -0.379 N 
HETATM   36  H   UNL     1      -2.946  -1.775   1.411  1.00  0.00     0.158 HD
HETATM   37  H   UNL     1      -2.810  -0.069   1.333  1.00  0.00     0.158 HD
ENDBRANCH  34  35
ENDBRANCH   2  30
TORSDOF 11
