REMARK  6 active torsions:
REMARK  status: ('A' for Active; 'I' for Inactive)
REMARK    1  A    between atoms: C_2  and  C_3 
REMARK    2  A    between atoms: C_3  and  O_4 
REMARK    3  A    between atoms: O_4  and  C_5 
REMARK    4  A    between atoms: C_8  and  C_9 
REMARK    5  A    between atoms: C_9  and  N_10 
REMARK       I    between atoms: N_10  and  C_11 
REMARK       I    between atoms: C_11  and  N_12 
REMARK    6  A    between atoms: N_12  and  C_13 
ROOT
HETATM    1  N   UNL     1       2.867   1.801   7.713  1.00  0.00    -0.339 N 
HETATM    2  C   UNL     1       3.978   2.482   7.299  1.00  0.00     0.316 C 
HETATM    3  N   UNL     1       4.265   2.253   5.977  1.00  0.00    -0.338 N 
HETATM    4  O   UNL     1       4.662   3.179   8.035  1.00  0.00    -0.247 OA
HETATM    5  H   UNL     1       2.314   1.306   7.031  1.00  0.00     0.164 HD
HETATM    6  H   UNL     1       3.470   2.083   5.379  1.00  0.00     0.164 HD
ENDROOT
BRANCH   1   7
HETATM    7  C   UNL     1       2.353   1.959   9.053  1.00  0.00     0.164 C 
BRANCH   7   8
HETATM    8  C   UNL     1       1.812   0.670   9.598  1.00  0.00    -0.021 A 
HETATM    9  C   UNL     1       2.665  -0.388   9.899  1.00  0.00     0.128 A 
HETATM   10  N   UNL     1       2.262  -1.565  10.432  1.00  0.00    -0.235 NA
HETATM   11  C   UNL     1       0.938  -1.701  10.690  1.00  0.00     0.186 A 
HETATM   12  C   UNL     1       0.002  -0.707  10.412  1.00  0.00     0.087 A 
HETATM   13  C   UNL     1       0.450   0.492   9.858  1.00  0.00     0.038 A 
HETATM   14 CL   UNL     1      -1.679  -0.898  10.741  1.00  0.00    -0.080 Cl
BRANCH  11  15
HETATM   15  O   UNL     1       0.485  -2.873  11.264  1.00  0.00    -0.333 OA
BRANCH  15  16
HETATM   16  C   UNL     1       1.519  -3.811  11.570  1.00  0.00     0.181 C 
BRANCH  16  17
HETATM   17  C   UNL     1       0.895  -5.017  12.292  1.00  0.00     0.002 C 
HETATM   18  C   UNL     1       1.979  -6.001  12.724  1.00  0.00     0.011 C 
HETATM   19  C   UNL     1      -0.144  -5.721  11.415  1.00  0.00     0.011 C 
ENDBRANCH  16  17
ENDBRANCH  15  16
ENDBRANCH  11  15
ENDBRANCH   7   8
ENDBRANCH   1   7
BRANCH   3  20
HETATM   20  C   UNL     1       5.420   2.908   5.355  1.00  0.00     0.090 C 
HETATM   21  C   UNL     1       5.126   4.394   4.999  1.00  0.00     0.067 C 
HETATM   22  C   UNL     1       4.464   4.508   3.671  1.00  0.00    -0.013 A 
HETATM   23  C   UNL     1       4.417   3.482   2.756  1.00  0.00     0.035 A 
HETATM   24  C   UNL     1       3.821   5.580   3.030  1.00  0.00     0.148 A 
HETATM   25  N   UNL     1       3.781   3.971   1.656  1.00  0.00    -0.282 N 
HETATM   26  C   UNL     1       4.950   2.112   2.933  1.00  0.00     0.061 C 
HETATM   27  H   UNL     1       3.576   3.504   0.778  1.00  0.00     0.189 HD
HETATM   28  N   UNL     1       3.395   5.251   1.805  1.00  0.00    -0.187 NA
HETATM   29  C   UNL     1       5.916   2.091   4.134  1.00  0.00     0.031 C 
ENDBRANCH   3  20
TORSDOF 6
