REMARK  1 active torsions:
REMARK  status: ('A' for Active; 'I' for Inactive)
REMARK    1  A    between atoms: C_8  and  C_9 
ROOT
HETATM    1  C   UNL     1       1.056  -0.190  -0.007  1.00  0.00     0.073 C 
HETATM    2  C   UNL     1       2.533  -0.026   0.036  1.00  0.00     0.062 C 
HETATM    3  N   UNL     1       3.306  -1.099   0.230  1.00  0.00    -0.178 NA
HETATM    4  N   UNL     1       4.550  -0.618   0.145  1.00  0.00    -0.262 N 
HETATM    5  H   UNL     1       5.320  -1.270   0.243  1.00  0.00     0.191 HD
HETATM    6  C   UNL     1       4.605   0.744   0.045  1.00  0.00     0.134 C 
HETATM    7  C   UNL     1       3.302   1.173  -0.137  1.00  0.00     0.032 C 
HETATM    8  C   UNL     1       2.755   2.514  -0.522  1.00  0.00     0.119 C 
HETATM    9  S   UNL     1       3.578   4.028   0.052  1.00  0.00    -0.141 SA
HETATM   10  C   UNL     1       4.805   3.392   1.227  1.00  0.00     0.136 C 
HETATM   11  C   UNL     1       5.326   4.588   2.028  1.00  0.00     0.031 C 
HETATM   12  C   UNL     1       5.965   2.703   0.503  1.00  0.00     0.236 C 
HETATM   13  O   UNL     1       7.077   3.219   0.370  1.00  0.00    -0.272 OA
HETATM   14  N   UNL     1       5.803   1.409   0.083  1.00  0.00    -0.311 N 
HETATM   15  H   UNL     1       6.671   0.930  -0.131  1.00  0.00     0.170 HD
ENDROOT
BRANCH   8  16
HETATM   16  C   UNL     1       2.672   2.501  -2.047  1.00  0.00    -0.039 A 
HETATM   17  C   UNL     1       3.826   2.542  -2.856  1.00  0.00     0.021 A 
HETATM   18  C   UNL     1       3.747   2.577  -4.258  1.00  0.00    -0.025 A 
HETATM   19  C   UNL     1       2.481   2.566  -4.879  1.00  0.00    -0.026 A 
HETATM   20  C   UNL     1       4.904   2.636  -5.052  1.00  0.00     0.012 A 
HETATM   21  C   UNL     1       1.329   2.517  -4.080  1.00  0.00     0.013 A 
HETATM   22  C   UNL     1       2.405   2.614  -6.281  1.00  0.00     0.012 A 
HETATM   23  C   UNL     1       1.422   2.490  -2.685  1.00  0.00     0.009 A 
HETATM   24  C   UNL     1       3.564   2.674  -7.057  1.00  0.00     0.001 A 
HETATM   25  C   UNL     1       4.813   2.685  -6.443  1.00  0.00     0.001 A 
ENDBRANCH   8  16
TORSDOF 1
