REMARK  5 active torsions:
REMARK  status: ('A' for Active; 'I' for Inactive)
REMARK    1  A    between atoms: C_5  and  N_6 
REMARK       I    between atoms: N_6  and  C_7 
REMARK       I    between atoms: C_7  and  N_8 
REMARK    2  A    between atoms: N_8  and  C_9 
REMARK    3  A    between atoms: C_16  and  O_17 
REMARK    4  A    between atoms: O_17  and  C_18 
REMARK    5  A    between atoms: C_18  and  C_19 
ROOT
HETATM    1  C   UNL     1      -0.248  -1.768   0.383  1.00  0.00     0.026 A 
HETATM    2  C   UNL     1      -0.989  -0.655   0.782  1.00  0.00     0.036 A 
HETATM    3 CL   UNL     1      -2.603  -0.873   1.340  1.00  0.00    -0.084 Cl
HETATM    4  C   UNL     1      -0.444   0.630   0.719  1.00  0.00     0.056 A 
HETATM    5  C   UNL     1       0.861   0.809   0.259  1.00  0.00     0.071 A 
HETATM    6  C   UNL     1       1.609  -0.320  -0.123  1.00  0.00     0.096 A 
HETATM    7  C   UNL     1       1.057  -1.602  -0.078  1.00  0.00     0.041 A 
ENDROOT
BRANCH   5   8
HETATM    8  N   UNL     1       1.486   2.069   0.133  1.00  0.00    -0.306 N 
HETATM    9  C   UNL     1       1.059   3.278   0.650  1.00  0.00     0.325 C 
HETATM   10  N   UNL     1       1.863   4.312   0.199  1.00  0.00    -0.306 N 
HETATM   11  O   UNL     1       0.110   3.418   1.411  1.00  0.00    -0.247 OA
HETATM   12  H   UNL     1       2.505   4.131  -0.556  1.00  0.00     0.171 HD
HETATM   13  H   UNL     1       2.420   2.040  -0.255  1.00  0.00     0.171 HD
BRANCH  10  14
HETATM   14  C   UNL     1       1.744   5.624   0.615  1.00  0.00     0.072 A 
HETATM   15  C   UNL     1       0.937   6.225   1.606  1.00  0.00     0.169 A 
HETATM   16  N   UNL     1       1.143   7.544   1.699  1.00  0.00    -0.185 NA
HETATM   17  N   UNL     1       2.075   7.783   0.764  1.00  0.00    -0.287 N 
HETATM   18  H   UNL     1       2.396   8.738   0.642  1.00  0.00     0.188 HD
HETATM   19  C   UNL     1       2.473   6.664   0.089  1.00  0.00     0.140 A 
ENDBRANCH  10  14
ENDBRANCH   5   8
BRANCH   6  20
HETATM   20  O   UNL     1       2.888  -0.119  -0.584  1.00  0.00    -0.340 OA
BRANCH  20  21
HETATM   21  C   UNL     1       3.863  -0.780   0.246  1.00  0.00     0.293 C 
BRANCH  21  22
HETATM   22  C   UNL     1       5.209  -0.086   0.113  1.00  0.00     0.408 C 
HETATM   23  F   UNL     1       5.112   1.229   0.421  1.00  0.00    -0.169 F 
HETATM   24  F   UNL     1       6.118  -0.637   0.947  1.00  0.00    -0.169 F 
HETATM   25  F   UNL     1       5.697  -0.180  -1.143  1.00  0.00    -0.169 F 
ENDBRANCH  21  22
ENDBRANCH  20  21
ENDBRANCH   6  20
TORSDOF 5
