REMARK  8 active torsions:
REMARK  status: ('A' for Active; 'I' for Inactive)
REMARK    1  A    between atoms: C_2  and  C_3 
REMARK    2  A    between atoms: C_3  and  C_4 
REMARK       I    between atoms: C_4  and  N_5 
REMARK    3  A    between atoms: N_8  and  C_9 
REMARK    4  A    between atoms: C_13  and  N_14 
REMARK    5  A    between atoms: N_14  and  C_15 
REMARK    6  A    between atoms: C_15  and  N_16 
REMARK       I    between atoms: N_16  and  C_17 
REMARK    7  A    between atoms: C_17  and  C_18 
REMARK    8  A    between atoms: C_21  and  O_22 
ROOT
HETATM    1  C   UNL     1       8.052  -4.223  -0.247  1.00  0.00     0.052 A 
HETATM    2  C   UNL     1       9.427  -4.265   0.056  1.00  0.00     0.062 A 
HETATM    3 CL   UNL     1      10.529  -2.956  -0.227  1.00  0.00    -0.082 Cl
HETATM    4  C   UNL     1       9.997  -5.380   0.700  1.00  0.00     0.055 A 
HETATM    5  C   UNL     1       9.227  -6.484   1.077  1.00  0.00     0.036 A 
HETATM    6  C   UNL     1       7.865  -6.449   0.818  1.00  0.00     0.032 A 
HETATM    7  C   UNL     1       7.300  -5.348   0.155  1.00  0.00     0.033 A 
ENDROOT
BRANCH   5   8
HETATM    8  N   UNL     1       9.893  -7.512   1.778  1.00  0.00    -0.333 N 
HETATM    9  H   UNL     1      10.808  -7.249   2.130  1.00  0.00     0.168 HD
BRANCH   8  10
HETATM   10  C   UNL     1       9.459  -8.673   2.306  1.00  0.00     0.179 C 
HETATM   11  S   UNL     1      10.248  -9.266   3.663  1.00  0.00    -0.040 SA
BRANCH  10  12
HETATM   12  N   UNL     1       8.443  -9.414   1.804  1.00  0.00    -0.299 N 
HETATM   13  C   UNL     1       8.291  -9.758   0.465  1.00  0.00     0.257 C 
HETATM   14  O   UNL     1       8.472  -9.050  -0.514  1.00  0.00    -0.267 OA
HETATM   15  H   UNL     1       8.221 -10.172   2.438  1.00  0.00     0.171 HD
BRANCH  13  16
HETATM   16  C   UNL     1       7.739 -11.121   0.266  1.00  0.00     0.032 A 
HETATM   17  C   UNL     1       6.562 -11.281  -0.466  1.00  0.00     0.020 A 
HETATM   18  C   UNL     1       6.030 -12.560  -0.639  1.00  0.00     0.038 A 
HETATM   19  C   UNL     1       6.685 -13.680  -0.117  1.00  0.00     0.068 A 
HETATM   20  C   UNL     1       7.864 -13.514   0.614  1.00  0.00     0.038 A 
HETATM   21  C   UNL     1       8.394 -12.234   0.806  1.00  0.00     0.020 A 
BRANCH  19  22
HETATM   22  O   UNL     1       6.072 -14.878  -0.357  1.00  0.00    -0.356 OA
HETATM   23  C   UNL     1       6.928 -16.016  -0.384  1.00  0.00     0.210 C 
ENDBRANCH  19  22
ENDBRANCH  13  16
ENDBRANCH  10  12
ENDBRANCH   8  10
ENDBRANCH   5   8
BRANCH   1  24
HETATM   24  N   UNL     1       7.352  -3.211  -0.918  1.00  0.00    -0.376 N 
HETATM   25  C   UNL     1       8.025  -2.327  -1.883  1.00  0.00     0.143 C 
HETATM   26  C   UNL     1       6.989  -1.666  -2.814  1.00  0.00     0.145 C 
HETATM   27  N   UNL     1       5.891  -1.013  -2.083  1.00  0.00    -0.349 N 
HETATM   28  C   UNL     1       5.084  -0.024  -2.644  1.00  0.00     0.219 C 
HETATM   29  C   UNL     1       5.308  -1.815  -0.998  1.00  0.00     0.145 C 
HETATM   30  O   UNL     1       3.989   0.269  -2.164  1.00  0.00    -0.273 OA
HETATM   31  C   UNL     1       6.359  -2.486  -0.093  1.00  0.00     0.143 C 
BRANCH  28  32
HETATM   32  C   UNL     1       5.635   0.691  -3.872  1.00  0.00     0.103 C 
BRANCH  32  33
HETATM   33  C   UNL     1       4.715   1.785  -4.416  1.00  0.00     0.005 C 
HETATM   34  C   UNL     1       4.721   3.045  -3.561  1.00  0.00     0.005 C 
ENDBRANCH  32  33
ENDBRANCH  28  32
ENDBRANCH   1  24
TORSDOF 8
