REMARK  3 active torsions:
REMARK  status: ('A' for Active; 'I' for Inactive)
REMARK    1  A    between atoms: C_3  and  N_4 
REMARK       I    between atoms: N_4  and  C_5 
REMARK       I    between atoms: C_5  and  N_6 
REMARK    2  A    between atoms: N_6  and  C_7 
REMARK    3  A    between atoms: C_15  and  C_16 
ROOT
HETATM    1  N   UNL     1       2.654  -0.132  -0.701  1.00  0.00    -0.309 N 
HETATM    2  C   UNL     1       3.458  -1.182  -0.362  1.00  0.00     0.326 C 
HETATM    3  N   UNL     1       4.785  -0.901  -0.187  1.00  0.00    -0.292 N 
HETATM    4  O   UNL     1       3.103  -2.348  -0.199  1.00  0.00    -0.247 OA
HETATM    5  H   UNL     1       3.149   0.753  -0.783  1.00  0.00     0.170 HD
HETATM    6  H   UNL     1       5.318  -1.722   0.062  1.00  0.00     0.172 HD
ENDROOT
BRANCH   1   7
HETATM    7  C   UNL     1       1.270  -0.122  -0.943  1.00  0.00     0.037 A 
HETATM    8  C   UNL     1       0.456  -1.253  -0.873  1.00  0.00     0.029 A 
HETATM    9  C   UNL     1      -0.914  -1.157  -1.131  1.00  0.00     0.003 A 
HETATM   10  C   UNL     1      -1.484   0.072  -1.459  1.00  0.00     0.016 A 
HETATM   11  C   UNL     1      -0.687   1.222  -1.528  1.00  0.00     0.050 A 
HETATM   12  C   UNL     1       0.691   1.110  -1.274  1.00  0.00     0.045 A 
BRANCH  11  13
HETATM   13  C   UNL     1      -1.299   2.548  -1.899  1.00  0.00     0.417 C 
HETATM   14  F   UNL     1      -0.500   3.615  -1.611  1.00  0.00    -0.166 F 
HETATM   15  F   UNL     1      -1.574   2.639  -3.230  1.00  0.00    -0.166 F 
HETATM   16  F   UNL     1      -2.477   2.785  -1.257  1.00  0.00    -0.166 F 
ENDBRANCH  11  13
ENDBRANCH   1   7
BRANCH   3  17
HETATM   17  C   UNL     1       5.459   0.319  -0.307  1.00  0.00     0.148 A 
HETATM   18  N   UNL     1       4.782   1.445  -0.639  1.00  0.00    -0.240 NA
HETATM   19  C   UNL     1       5.524   2.577  -0.731  1.00  0.00     0.138 A 
HETATM   20  C   UNL     1       6.889   2.596  -0.502  1.00  0.00     0.135 A 
HETATM   21  N   UNL     1       7.577   1.483  -0.170  1.00  0.00    -0.268 NA
HETATM   22  C   UNL     1       6.834   0.352  -0.079  1.00  0.00     0.166 A 
ENDBRANCH   3  17
TORSDOF 3
