REMARK  3 active torsions:
REMARK  status: ('A' for Active; 'I' for Inactive)
REMARK    1  A    between atoms: N_12  and  C_13 
REMARK    2  A    between atoms: C_13  and  C_14 
REMARK       I    between atoms: C_14  and  N_15 
REMARK    3  A    between atoms: N_15  and  C_16 
ROOT
HETATM    1  C   UNL     1       3.354  -2.760   0.962  1.00  0.00     0.048 C 
HETATM    2  C   UNL     1       4.011  -1.746   0.072  1.00  0.00    -0.061 A 
HETATM    3  C   UNL     1       4.878  -0.780   0.611  1.00  0.00     0.021 A 
HETATM    4  C   UNL     1       5.485   0.168  -0.239  1.00  0.00     0.005 A 
HETATM    5  C   UNL     1       5.195   0.129  -1.607  1.00  0.00     0.044 A 
HETATM    6  N   UNL     1       5.913   1.140  -2.213  1.00  0.00    -0.350 N 
HETATM    7  H   UNL     1       5.915   1.349  -3.203  1.00  0.00     0.166 HD
HETATM    8  C   UNL     1       6.647   1.804  -1.273  1.00  0.00     0.116 A 
HETATM    9  C   UNL     1       6.398   1.236  -0.049  1.00  0.00     0.028 A 
HETATM   10  C   UNL     1       7.557   2.895  -1.465  1.00  0.00     0.291 A 
HETATM   11  O   UNL     1       7.779   3.389  -2.565  1.00  0.00    -0.264 OA
HETATM   12  N   UNL     1       8.148   3.332  -0.263  1.00  0.00    -0.224 N 
HETATM   13  N   UNL     1       7.903   2.754   1.001  1.00  0.00    -0.180 NA
HETATM   14  C   UNL     1       7.068   1.760   1.106  1.00  0.00     0.153 A 
HETATM   15  C   UNL     1       4.323  -0.812  -2.164  1.00  0.00     0.031 A 
HETATM   16  C   UNL     1       3.737  -1.745  -1.300  1.00  0.00     0.009 A 
ENDROOT
BRANCH  12  17
HETATM   17  C   UNL     1       9.222   4.310  -0.320  1.00  0.00     0.258 C 
BRANCH  17  18
HETATM   18  C   UNL     1       9.057   5.845  -0.267  1.00  0.00     0.244 C 
HETATM   19  N   UNL     1       7.815   6.479  -0.149  1.00  0.00    -0.321 N 
HETATM   20  C   UNL     1       6.551   5.755  -0.088  1.00  0.00     0.159 C 
HETATM   21  O   UNL     1      10.120   6.481  -0.369  1.00  0.00    -0.271 OA
BRANCH  19  22
HETATM   22  C   UNL     1       7.725   7.921  -0.150  1.00  0.00     0.037 A 
HETATM   23  C   UNL     1       8.700   8.721   0.464  1.00  0.00     0.037 A 
HETATM   24  C   UNL     1       8.618  10.128   0.475  1.00  0.00    -0.054 A 
HETATM   25  C   UNL     1       9.706  10.915   1.152  1.00  0.00     0.049 C 
HETATM   26  C   UNL     1       7.515  10.759  -0.125  1.00  0.00    -0.056 A 
HETATM   27  C   UNL     1       7.385  12.256  -0.176  1.00  0.00     0.049 C 
HETATM   28  C   UNL     1       6.542   9.968  -0.749  1.00  0.00     0.009 A 
HETATM   29  C   UNL     1       6.643   8.572  -0.755  1.00  0.00     0.030 A 
ENDBRANCH  19  22
ENDBRANCH  17  18
ENDBRANCH  12  17
TORSDOF 3
