REMARK  8 active torsions:
REMARK  status: ('A' for Active; 'I' for Inactive)
REMARK    1  A    between atoms: C_2  and  C_3 
REMARK    2  A    between atoms: C_5  and  C_6 
REMARK       I    between atoms: C_6  and  N_7 
REMARK    3  A    between atoms: N_7  and  C_8 
REMARK    4  A    between atoms: C_8  and  C_9 
REMARK    5  A    between atoms: C_9  and  N_10 
REMARK    6  A    between atoms: C_9  and  C_20 
REMARK       I    between atoms: N_10  and  C_11 
REMARK    7  A    between atoms: C_11  and  C_12 
REMARK    8  A    between atoms: C_14  and  C_15 
ROOT
HETATM    1  C   UNL     1       5.119   2.865  -5.005  1.00  0.00     0.136 C 
ENDROOT
BRANCH   1   2
HETATM    2  C   UNL     1       6.653   2.650  -5.070  1.00  0.00     0.153 C 
BRANCH   2   3
HETATM    3  N   UNL     1       7.046   1.512  -5.880  1.00  0.00    -0.353 N 
HETATM    4  C   UNL     1       6.835   0.211  -5.482  1.00  0.00     0.275 C 
HETATM    5  O   UNL     1       6.346  -0.065  -4.389  1.00  0.00    -0.265 OA
HETATM    6  H   UNL     1       7.338   1.674  -6.839  1.00  0.00     0.162 HD
BRANCH   4   7
HETATM    7  C   UNL     1       7.225  -0.782  -6.460  1.00  0.00     0.143 A 
HETATM    8  O   UNL     1       7.771  -0.383  -7.653  1.00  0.00    -0.310 OA
HETATM    9  C   UNL     1       8.058  -1.509  -8.364  1.00  0.00     0.053 A 
HETATM   10  C   UNL     1       7.693  -2.629  -7.649  1.00  0.00     0.036 A 
HETATM   11  C   UNL     1       7.157  -2.162  -6.426  1.00  0.00     0.045 A 
BRANCH   9  12
HETATM   12  C   UNL     1       8.681  -1.311  -9.696  1.00  0.00     0.060 C 
HETATM   13  C   UNL     1       7.637  -1.246 -10.797  1.00  0.00     0.012 C 
ENDBRANCH   9  12
ENDBRANCH   4   7
ENDBRANCH   2   3
ENDBRANCH   1   2
BRANCH   1  14
HETATM   14  N   UNL     1       4.420   2.914  -6.286  1.00  0.00    -0.345 N 
HETATM   15  C   UNL     1       4.866   3.526  -7.433  1.00  0.00     0.276 C 
HETATM   16  O   UNL     1       5.996   3.987  -7.557  1.00  0.00    -0.265 OA
HETATM   17  H   UNL     1       3.442   2.651  -6.285  1.00  0.00     0.163 HD
BRANCH  15  18
HETATM   18  C   UNL     1       3.871   3.576  -8.486  1.00  0.00     0.143 A 
HETATM   19  O   UNL     1       2.626   3.044  -8.265  1.00  0.00    -0.310 OA
HETATM   20  C   UNL     1       1.897   3.234  -9.400  1.00  0.00     0.053 A 
HETATM   21  C   UNL     1       2.656   3.882 -10.350  1.00  0.00     0.036 A 
HETATM   22  C   UNL     1       3.925   4.101  -9.763  1.00  0.00     0.045 A 
BRANCH  20  23
HETATM   23  C   UNL     1       0.500   2.732  -9.382  1.00  0.00     0.060 C 
HETATM   24  C   UNL     1       0.419   1.294  -9.867  1.00  0.00     0.012 C 
ENDBRANCH  20  23
ENDBRANCH  15  18
ENDBRANCH   1  14
BRANCH   1  25
HETATM   25  C   UNL     1       4.748   4.058  -4.138  1.00  0.00    -0.031 A 
HETATM   26  C   UNL     1       5.066   5.373  -4.519  1.00  0.00     0.049 A 
HETATM   27  C   UNL     1       4.710   6.451  -3.707  1.00  0.00     0.102 A 
HETATM   28  C   UNL     1       4.065   6.230  -2.488  1.00  0.00     0.102 A 
HETATM   29  O   UNL     1       5.035   7.702  -4.168  1.00  0.00    -0.346 OA
HETATM   30  O   UNL     1       3.719   7.238  -1.625  1.00  0.00    -0.346 OA
HETATM   31  C   UNL     1       3.735   4.934  -2.102  1.00  0.00     0.040 A 
HETATM   32  C   UNL     1       4.395   8.457  -1.951  1.00  0.00     0.202 C 
HETATM   33  C   UNL     1       4.333   8.720  -3.447  1.00  0.00     0.202 C 
HETATM   34  C   UNL     1       4.074   3.855  -2.921  1.00  0.00     0.012 A 
ENDBRANCH   1  25
TORSDOF 8
