REMARK  6 active torsions:
REMARK  status: ('A' for Active; 'I' for Inactive)
REMARK    1  A    between atoms: C_2  and  C_3 
REMARK       I    between atoms: C_3  and  N_4 
REMARK    2  A    between atoms: N_4  and  C_5 
REMARK    3  A    between atoms: C_16  and  N_17 
REMARK    4  A    between atoms: C_20  and  N_21 
REMARK    5  A    between atoms: N_21  and  C_24 
REMARK    6  A    between atoms: C_24  and  C_25 
ROOT
HETATM    1  C   UNL     1       4.262   4.167  -0.290  1.00  0.00     0.019 A 
HETATM    2  C   UNL     1       3.499   3.790   0.813  1.00  0.00     0.032 A 
HETATM    3  C   UNL     1       2.633   4.712   1.402  1.00  0.00     0.019 A 
HETATM    4  C   UNL     1       2.520   6.003   0.865  1.00  0.00     0.030 A 
HETATM    5  C   UNL     1       3.263   6.402  -0.257  1.00  0.00     0.030 A 
HETATM    6  C   UNL     1       4.148   5.460  -0.808  1.00  0.00     0.030 A 
ENDROOT
BRANCH   5   7
HETATM    7  N   UNL     1       3.101   7.642  -0.867  1.00  0.00    -0.381 N 
HETATM    8  C   UNL     1       4.293   8.420  -1.182  1.00  0.00     0.125 C 
HETATM    9  C   UNL     1       4.073   9.099  -2.528  1.00  0.00     0.053 C 
HETATM   10  C   UNL     1       2.768   9.897  -2.567  1.00  0.00     0.189 C 
HETATM   11  C   UNL     1       1.572   9.064  -2.093  1.00  0.00     0.053 C 
HETATM   12  C   UNL     1       1.832   8.351  -0.766  1.00  0.00     0.125 C 
BRANCH  10  13
HETATM   13  N   UNL     1       2.853  11.148  -1.732  1.00  0.00    -0.067 N 
HETATM   14  H   UNL     1       1.920  11.582  -1.687  1.00  0.00     0.277 HD
HETATM   15  H   UNL     1       3.089  10.930  -0.756  1.00  0.00     0.277 HD
BRANCH  13  16
HETATM   16  C   UNL     1       3.781  12.215  -2.218  1.00  0.00     0.271 C 
BRANCH  16  17
HETATM   17  C   UNL     1       3.709  13.413  -1.315  1.00  0.00    -0.030 A 
HETATM   18  C   UNL     1       2.859  14.486  -1.629  1.00  0.00     0.048 A 
HETATM   19  C   UNL     1       2.794  15.541  -0.743  1.00  0.00     0.105 A 
HETATM   20  C   UNL     1       3.521  15.560   0.421  1.00  0.00     0.105 A 
HETATM   21  O   UNL     1       2.029  16.654  -0.896  1.00  0.00    -0.323 OA
HETATM   22  O   UNL     1       3.307  16.687   1.147  1.00  0.00    -0.323 OA
HETATM   23  C   UNL     1       4.359  14.524   0.767  1.00  0.00     0.040 A 
HETATM   24  C   UNL     1       2.385  17.397   0.293  1.00  0.00     0.352 A 
HETATM   25  C   UNL     1       4.453  13.439  -0.111  1.00  0.00     0.012 A 
ENDBRANCH  16  17
ENDBRANCH  13  16
ENDBRANCH  10  13
ENDBRANCH   5   7
BRANCH   2  26
HETATM   26  C   UNL     1       3.559   2.379   1.260  1.00  0.00     0.252 C 
HETATM   27  N   UNL     1       3.488   2.159   2.614  1.00  0.00    -0.344 N 
HETATM   28  H   UNL     1       3.551   2.949   3.242  1.00  0.00     0.163 HD
HETATM   29  O   UNL     1       3.693   1.493   0.423  1.00  0.00    -0.268 OA
BRANCH  27  30
HETATM   30  C   UNL     1       3.444   0.831   3.228  1.00  0.00     0.171 C 
HETATM   31  C   UNL     1       4.636  -0.059   2.829  1.00  0.00     0.220 C 
HETATM   32  O   UNL     1       5.707  -0.014   3.433  1.00  0.00    -0.278 OA
HETATM   33  N   UNL     1       4.506  -0.755   1.647  1.00  0.00    -0.261 NA
HETATM   34  C   UNL     1       3.532  -1.823   1.584  1.00  0.00     0.095 C 
HETATM   35  H   UNL     1       4.345  -0.093   0.884  1.00  0.00     0.130 HD
HETATM   36  C   UNL     1       2.165  -1.364   1.089  1.00  0.00     0.015 C 
HETATM   37  C   UNL     1       1.485  -0.221   1.848  1.00  0.00     0.004 C 
HETATM   38  C   UNL     1       2.067   0.154   3.207  1.00  0.00     0.034 C 
ENDBRANCH  27  30
ENDBRANCH   2  26
TORSDOF 6
