REMARK  6 active torsions:
REMARK  status: ('A' for Active; 'I' for Inactive)
REMARK    1  A    between atoms: O_2  and  C_3 
REMARK    2  A    between atoms: N_7  and  C_9 
REMARK    3  A    between atoms: C_9  and  C_10 
REMARK    4  A    between atoms: C_11  and  O_12 
REMARK    5  A    between atoms: C_22  and  N_23 
REMARK       I    between atoms: N_23  and  C_24 
REMARK    6  A    between atoms: C_24  and  C_25 
ROOT
HETATM    1  C   UNL     1       2.563   1.269   0.030  1.00  0.00     0.161 C 
HETATM    2  C   UNL     1       2.119   2.775  -0.079  1.00  0.00     0.019 C 
HETATM    3  C   UNL     1       2.243   3.517   1.275  1.00  0.00     0.045 C 
HETATM    4  C   UNL     1       1.183   3.088   2.283  1.00  0.00     0.236 C 
HETATM    5  N   UNL     1      -0.196   3.233   1.694  1.00  0.00    -0.067 N 
HETATM    6  H   UNL     1      -0.838   2.792   2.375  1.00  0.00     0.280 HD
HETATM    7  C   UNL     1      -0.351   2.468   0.406  1.00  0.00     0.236 C 
HETATM    8  C   UNL     1       0.680   2.948  -0.609  1.00  0.00     0.045 C 
HETATM    9  C   UNL     1       3.189   3.298  -1.017  1.00  0.00    -0.038 A 
HETATM   10  C   UNL     1       4.297   2.432  -1.065  1.00  0.00    -0.026 A 
HETATM   11  C   UNL     1       4.114   1.226  -0.170  1.00  0.00     0.148 C 
HETATM   12  C   UNL     1       3.186   4.477  -1.752  1.00  0.00     0.009 A 
HETATM   13  C   UNL     1       4.296   4.778  -2.543  1.00  0.00     0.001 A 
HETATM   14  C   UNL     1       5.395   3.910  -2.594  1.00  0.00     0.001 A 
HETATM   15  C   UNL     1       5.402   2.729  -1.852  1.00  0.00     0.010 A 
ENDROOT
BRANCH   1  16
HETATM   16  O   UNL     1       1.803   0.405  -0.847  1.00  0.00    -0.387 OA
HETATM   17  C   UNL     1       2.182   0.321  -2.216  1.00  0.00     0.202 C 
ENDBRANCH   1  16
BRANCH  11  18
HETATM   18  N   UNL     1       5.009   1.364   0.975  1.00  0.00    -0.346 N 
HETATM   19  C   UNL     1       4.747   1.033   2.282  1.00  0.00     0.252 C 
HETATM   20  O   UNL     1       3.612   0.867   2.716  1.00  0.00    -0.268 OA
HETATM   21  H   UNL     1       5.974   1.527   0.731  1.00  0.00     0.163 HD
BRANCH  19  22
HETATM   22  C   UNL     1       5.923   0.948   3.157  1.00  0.00     0.039 A 
HETATM   23  C   UNL     1       5.787   0.828   4.532  1.00  0.00     0.066 A 
HETATM   24  S   UNL     1       7.280   0.737   5.358  1.00  0.00    -0.113 SA
HETATM   25  C   UNL     1       8.152   0.834   3.895  1.00  0.00     0.050 A 
HETATM   26  C   UNL     1       7.318   0.942   2.802  1.00  0.00     0.024 A 
ENDBRANCH  19  22
ENDBRANCH  11  18
BRANCH   5  27
HETATM   27  C   UNL     1      -0.725   4.650   1.629  1.00  0.00     0.276 C 
BRANCH  27  28
HETATM   28  C   UNL     1      -0.890   5.308   2.972  1.00  0.00     0.002 A 
HETATM   29  C   UNL     1      -1.615   4.691   4.000  1.00  0.00     0.073 A 
HETATM   30  C   UNL     1      -1.792   5.312   5.235  1.00  0.00     0.039 A 
HETATM   31  C   UNL     1      -1.236   6.573   5.456  1.00  0.00     0.026 A 
HETATM   32  C   UNL     1      -0.515   7.201   4.444  1.00  0.00     0.034 A 
HETATM   33 CL   UNL     1       0.174   8.752   4.715  1.00  0.00    -0.084 Cl
HETATM   34  C   UNL     1      -0.343   6.579   3.206  1.00  0.00     0.035 A 
BRANCH  29  35
HETATM   35  O   UNL     1      -2.129   3.444   3.768  1.00  0.00    -0.360 OA
HETATM   36  H   UNL     1      -2.712   3.214   4.520  1.00  0.00     0.217 HD
ENDBRANCH  29  35
ENDBRANCH  27  28
ENDBRANCH   5  27
TORSDOF 6
