REMARK  5 active torsions:
REMARK  status: ('A' for Active; 'I' for Inactive)
REMARK    1  A    between atoms: C_2  and  C_3 
REMARK    2  A    between atoms: C_3  and  N_4 
REMARK    3  A    between atoms: N_4  and  C_7 
REMARK    4  A    between atoms: C_10  and  O_11 
REMARK    5  A    between atoms: O_11  and  C_12 
ROOT
HETATM    1  C   UNL     1       6.997  -7.792   0.256  1.00  0.00     0.164 A 
HETATM    2  N   UNL     1       6.107  -8.617  -0.332  1.00  0.00    -0.236 NA
HETATM    3  C   UNL     1       6.556  -9.855  -0.659  1.00  0.00     0.142 A 
HETATM    4  C   UNL     1       7.853 -10.298  -0.431  1.00  0.00     0.062 A 
HETATM    5  C   UNL     1       8.246 -11.619  -0.804  1.00  0.00     0.101 C 
HETATM    6  N   UNL     1       8.562 -12.692  -1.109  1.00  0.00    -0.191 NA
HETATM    7  C   UNL     1       8.749  -9.413   0.167  1.00  0.00     0.028 A 
HETATM    8  C   UNL     1       8.316  -8.134   0.512  1.00  0.00     0.059 A 
ENDROOT
BRANCH   1   9
HETATM    9  O   UNL     1       6.620  -6.510   0.594  1.00  0.00    -0.329 OA
BRANCH   9  10
HETATM   10  C   UNL     1       5.205  -6.298   0.680  1.00  0.00     0.130 C 
HETATM   11  C   UNL     1       4.994  -5.242   1.774  1.00  0.00     0.034 C 
HETATM   12  C   UNL     1       5.658  -3.909   1.414  1.00  0.00     0.035 C 
HETATM   13  C   UNL     1       5.219  -3.362   0.051  1.00  0.00     0.186 C 
HETATM   14  C   UNL     1       5.303  -4.430  -1.047  1.00  0.00     0.035 C 
HETATM   15  C   UNL     1       4.663  -5.765  -0.654  1.00  0.00     0.034 C 
BRANCH  13  16
HETATM   16  N   UNL     1       3.807  -2.842   0.121  1.00  0.00    -0.067 N 
HETATM   17  H   UNL     1       3.168  -3.533   0.531  1.00  0.00     0.277 HD
HETATM   18  H   UNL     1       3.453  -2.689  -0.834  1.00  0.00     0.277 HD
BRANCH  16  19
HETATM   19  C   UNL     1       3.644  -1.542   0.844  1.00  0.00     0.271 C 
BRANCH  19  20
HETATM   20  C   UNL     1       2.222  -1.063   0.813  1.00  0.00    -0.030 A 
HETATM   21  C   UNL     1       1.270  -1.593   1.699  1.00  0.00     0.012 A 
HETATM   22  C   UNL     1      -0.045  -1.121   1.690  1.00  0.00     0.040 A 
HETATM   23  C   UNL     1      -0.418  -0.115   0.803  1.00  0.00     0.102 A 
HETATM   24  C   UNL     1       0.509   0.389  -0.110  1.00  0.00     0.102 A 
HETATM   25  O   UNL     1      -1.709   0.334   0.885  1.00  0.00    -0.346 OA
HETATM   26  C   UNL     1       1.824  -0.077  -0.103  1.00  0.00     0.048 A 
HETATM   27  O   UNL     1       0.210   1.360  -1.029  1.00  0.00    -0.346 OA
HETATM   28  C   UNL     1      -1.205   1.578  -1.136  1.00  0.00     0.202 C 
HETATM   29  C   UNL     1      -1.858   1.604   0.237  1.00  0.00     0.202 C 
ENDBRANCH  19  20
ENDBRANCH  16  19
ENDBRANCH  13  16
ENDBRANCH   9  10
ENDBRANCH   1   9
TORSDOF 5
