REMARK  8 active torsions:
REMARK  status: ('A' for Active; 'I' for Inactive)
REMARK    1  A    between atoms: C_7  and  C_8 
REMARK       I    between atoms: C_8  and  N_9 
REMARK    2  A    between atoms: N_9  and  C_10 
REMARK    3  A    between atoms: C_13  and  C_14 
REMARK       I    between atoms: C_14  and  N_15 
REMARK    4  A    between atoms: N_15  and  C_16 
REMARK    5  A    between atoms: C_16  and  C_17 
REMARK    6  A    between atoms: C_17  and  C_18 
REMARK    7  A    between atoms: C_20  and  O_21 
REMARK    8  A    between atoms: C_23  and  O_24 
ROOT
HETATM    1  C   UNL     1      -0.481  -1.799  -0.366  1.00  0.00     0.035 A 
HETATM    2  C   UNL     1      -1.859  -1.643  -0.523  1.00  0.00     0.030 A 
HETATM    3  C   UNL     1      -2.443  -0.371  -0.483  1.00  0.00     0.019 A 
HETATM    4  C   UNL     1      -1.646   0.761  -0.289  1.00  0.00     0.032 A 
HETATM    5  C   UNL     1      -0.272   0.608  -0.082  1.00  0.00     0.019 A 
HETATM    6  C   UNL     1       0.306  -0.665  -0.125  1.00  0.00     0.030 A 
ENDROOT
BRANCH   4   7
HETATM    7  C   UNL     1      -2.213   2.137  -0.318  1.00  0.00     0.251 C 
HETATM    8  N   UNL     1      -3.323   2.312  -1.120  1.00  0.00    -0.357 N 
HETATM    9  H   UNL     1      -3.514   1.594  -1.809  1.00  0.00     0.162 HD
HETATM   10  O   UNL     1      -1.668   3.046   0.296  1.00  0.00    -0.268 OA
BRANCH   8  11
HETATM   11  C   UNL     1      -3.805   3.647  -1.424  1.00  0.00     0.127 C 
BRANCH  11  12
HETATM   12  C   UNL     1      -5.206   3.644  -2.043  1.00  0.00     0.058 C 
BRANCH  12  13
HETATM   13  C   UNL     1      -5.327   2.845  -3.324  1.00  0.00    -0.054 A 
HETATM   14  C   UNL     1      -4.513   3.122  -4.433  1.00  0.00     0.046 A 
HETATM   15  C   UNL     1      -4.630   2.378  -5.616  1.00  0.00     0.102 A 
HETATM   16  C   UNL     1      -5.596   1.357  -5.704  1.00  0.00     0.101 A 
HETATM   17  C   UNL     1      -6.412   1.086  -4.602  1.00  0.00     0.040 A 
HETATM   18  C   UNL     1      -6.278   1.824  -3.424  1.00  0.00     0.010 A 
BRANCH  15  19
HETATM   19  O   UNL     1      -3.865   2.581  -6.738  1.00  0.00    -0.353 OA
HETATM   20  C   UNL     1      -2.782   3.495  -6.642  1.00  0.00     0.210 C 
ENDBRANCH  15  19
BRANCH  16  21
HETATM   21  O   UNL     1      -5.654   0.680  -6.897  1.00  0.00    -0.353 OA
HETATM   22  C   UNL     1      -6.733  -0.225  -7.086  1.00  0.00     0.210 C 
ENDBRANCH  16  21
ENDBRANCH  12  13
ENDBRANCH  11  12
ENDBRANCH   8  11
ENDBRANCH   4   7
BRANCH   1  23
HETATM   23  N   UNL     1       0.188  -3.034  -0.461  1.00  0.00    -0.322 N 
HETATM   24  C   UNL     1      -0.350  -4.281  -0.726  1.00  0.00     0.265 C 
HETATM   25  O   UNL     1      -1.547  -4.521  -0.840  1.00  0.00    -0.267 OA
HETATM   26  H   UNL     1       1.196  -3.017  -0.346  1.00  0.00     0.169 HD
BRANCH  24  27
HETATM   27  C   UNL     1       0.701  -5.379  -0.875  1.00  0.00     0.097 C 
HETATM   28  C   UNL     1       0.412  -6.549  -1.499  1.00  0.00     0.064 C 
HETATM   29  C   UNL     1      -0.909  -6.842  -2.164  1.00  0.00     0.078 C 
HETATM   30  O   UNL     1       1.285  -7.615  -1.658  1.00  0.00    -0.353 OA
HETATM   31  C   UNL     1       2.425  -7.650  -0.802  1.00  0.00     0.185 C 
HETATM   32  C   UNL     1       3.240  -6.381  -0.920  1.00  0.00     0.106 C 
HETATM   33  S   UNL     1       2.283  -5.022  -0.207  1.00  0.00    -0.120 SA
ENDBRANCH  24  27
ENDBRANCH   1  23
TORSDOF 8
