REMARK  9 active torsions:
REMARK  status: ('A' for Active; 'I' for Inactive)
REMARK    1  A    between atoms: S_2  and  C_3 
REMARK    2  A    between atoms: C_3  and  C_4 
REMARK    3  A    between atoms: C_5  and  C_6 
REMARK    4  A    between atoms: C_6  and  O_7 
REMARK    5  A    between atoms: O_7  and  C_8 
REMARK    6  A    between atoms: C_8  and  C_9 
REMARK       I    between atoms: C_9  and  N_10 
REMARK    7  A    between atoms: N_10  and  C_11 
REMARK    8  A    between atoms: C_12  and  C_13 
REMARK       I    between atoms: C_13  and  N_14 
REMARK    9  A    between atoms: N_14  and  C_15 
ROOT
HETATM    1  C   UNL     1       7.913  -0.457  -4.877  1.00  0.00     0.246 C 
HETATM    2  N   UNL     1       8.253  -1.620  -4.207  1.00  0.00    -0.324 N 
HETATM    3  O   UNL     1       8.272  -0.167  -6.013  1.00  0.00    -0.271 OA
HETATM    4  H   UNL     1       8.150  -1.614  -3.195  1.00  0.00     0.169 HD
ENDROOT
BRANCH   1   5
HETATM    5  C   UNL     1       7.058   0.485  -4.026  1.00  0.00     0.282 C 
BRANCH   5   6
HETATM    6  O   UNL     1       5.789  -0.104  -3.739  1.00  0.00    -0.307 OA
BRANCH   6   7
HETATM    7  C   UNL     1       4.935  -0.114  -4.808  1.00  0.00     0.318 C 
HETATM    8  O   UNL     1       5.175   0.426  -5.881  1.00  0.00    -0.257 OA
BRANCH   7   9
HETATM    9  C   UNL     1       3.754  -0.894  -4.519  1.00  0.00     0.159 A 
HETATM   10  C   UNL     1       2.713  -1.293  -5.353  1.00  0.00     0.004 A 
HETATM   11  C   UNL     1       1.822  -2.057  -4.537  1.00  0.00     0.008 A 
HETATM   12  C   UNL     1       2.382  -2.074  -3.267  1.00  0.00     0.087 A 
HETATM   13  C   UNL     1       0.605  -2.735  -4.741  1.00  0.00     0.015 A 
HETATM   14  O   UNL     1       3.549  -1.377  -3.254  1.00  0.00    -0.303 OA
HETATM   15  C   UNL     1       1.816  -2.723  -2.172  1.00  0.00     0.038 A 
HETATM   16  C   UNL     1       0.609  -3.392  -2.396  1.00  0.00     0.003 A 
HETATM   17  C   UNL     1       0.011  -3.399  -3.658  1.00  0.00     0.001 A 
BRANCH  10  18
HETATM   18  C   UNL     1       2.571  -1.005  -6.808  1.00  0.00     0.116 C 
BRANCH  18  19
HETATM   19  S   UNL     1       1.593   0.505  -7.071  1.00  0.00    -0.169 SA
HETATM   20  C   UNL     1       2.004   0.782  -8.810  1.00  0.00     0.090 C 
ENDBRANCH  18  19
ENDBRANCH  10  18
ENDBRANCH   7   9
ENDBRANCH   6   7
ENDBRANCH   5   6
ENDBRANCH   1   5
BRANCH   2  21
HETATM   21  C   UNL     1       8.816  -2.786  -4.779  1.00  0.00     0.050 A 
HETATM   22  C   UNL     1       9.485  -3.719  -3.961  1.00  0.00     0.058 A 
HETATM   23  C   UNL     1       9.922  -4.946  -4.479  1.00  0.00     0.019 A 
HETATM   24  C   UNL     1       9.727  -5.238  -5.827  1.00  0.00     0.001 A 
HETATM   25  C   UNL     1       9.102  -4.307  -6.654  1.00  0.00     0.002 A 
HETATM   26  C   UNL     1       8.649  -3.089  -6.135  1.00  0.00     0.030 A 
BRANCH  22  27
HETATM   27  C   UNL     1       9.834  -3.415  -2.550  1.00  0.00     0.254 C 
HETATM   28  N   UNL     1      10.360  -2.150  -2.357  1.00  0.00    -0.352 N 
HETATM   29  H   UNL     1      10.594  -1.604  -3.181  1.00  0.00     0.163 HD
HETATM   30  O   UNL     1       9.671  -4.252  -1.673  1.00  0.00    -0.268 OA
BRANCH  28  31
HETATM   31  C   UNL     1      10.774  -1.650  -1.085  1.00  0.00     0.084 A 
HETATM   32  C   UNL     1      11.957  -0.728  -0.981  1.00  0.00     0.027 A 
HETATM   33  C   UNL     1      10.573  -0.196  -0.754  1.00  0.00     0.027 A 
ENDBRANCH  28  31
ENDBRANCH  22  27
ENDBRANCH   2  21
TORSDOF 9
