REMARK  7 active torsions:
REMARK  status: ('A' for Active; 'I' for Inactive)
REMARK    1  A    between atoms: O_2  and  C_3 
REMARK    2  A    between atoms: C_5  and  C_6 
REMARK    3  A    between atoms: N_8  and  C_9 
REMARK    4  A    between atoms: C_9  and  C_10 
REMARK    5  A    between atoms: C_17  and  C_18 
REMARK       I    between atoms: C_18  and  N_19 
REMARK    6  A    between atoms: N_19  and  N_20 
REMARK       I    between atoms: N_20  and  C_21 
REMARK    7  A    between atoms: C_21  and  C_22 
ROOT
HETATM    1  C   UNL     1       4.204   0.061  -4.628  1.00  0.00     0.104 A 
HETATM    2  N   UNL     1       3.936   1.350  -4.914  1.00  0.00    -0.171 NA
HETATM    3  N   UNL     1       4.680   1.631  -5.993  1.00  0.00    -0.275 N 
HETATM    4  C   UNL     1       5.401   0.565  -6.439  1.00  0.00     0.132 A 
HETATM    5  C   UNL     1       5.131  -0.487  -5.576  1.00  0.00     0.082 A 
ENDROOT
BRANCH   5   6
HETATM    6  C   UNL     1       5.715  -1.820  -5.643  1.00  0.00     0.274 C 
HETATM    7  N   UNL     1       6.214  -2.164  -6.886  1.00  0.00    -0.263 N 
HETATM    8  H   UNL     1       6.020  -1.611  -7.718  1.00  0.00     0.190 HD
HETATM    9  O   UNL     1       5.757  -2.601  -4.695  1.00  0.00    -0.266 OA
BRANCH   7  10
HETATM   10  N   UNL     1       6.597  -3.495  -7.117  1.00  0.00    -0.262 N 
HETATM   11  C   UNL     1       6.670  -3.935  -8.422  1.00  0.00     0.286 C 
HETATM   12  O   UNL     1       6.495  -3.168  -9.370  1.00  0.00    -0.264 OA
HETATM   13  H   UNL     1       6.626  -4.113  -6.310  1.00  0.00     0.190 HD
BRANCH  11  14
HETATM   14  C   UNL     1       6.957  -5.340  -8.602  1.00  0.00     0.102 A 
HETATM   15  N   UNL     1       7.076  -5.889  -9.863  1.00  0.00    -0.361 N 
HETATM   16  H   UNL     1       6.972  -5.357 -10.719  1.00  0.00     0.165 HD
HETATM   17  C   UNL     1       7.352  -7.227  -9.777  1.00  0.00     0.088 A 
HETATM   18  C   UNL     1       7.411  -7.558  -8.444  1.00  0.00     0.019 A 
HETATM   19  C   UNL     1       7.163  -6.375  -7.703  1.00  0.00     0.036 A 
ENDBRANCH  11  14
ENDBRANCH   7  10
ENDBRANCH   5   6
BRANCH   1  20
HETATM   20  C   UNL     1       3.539  -0.560  -3.476  1.00  0.00    -0.002 A 
HETATM   21  C   UNL     1       3.057  -1.874  -3.517  1.00  0.00     0.050 A 
HETATM   22  C   UNL     1       2.415  -2.442  -2.410  1.00  0.00     0.069 A 
HETATM   23  C   UNL     1       2.221  -1.679  -1.258  1.00  0.00     0.037 A 
HETATM   24  C   UNL     1       2.677  -0.362  -1.209  1.00  0.00     0.004 A 
HETATM   25  C   UNL     1       3.332   0.193  -2.309  1.00  0.00     0.014 A 
BRANCH  22  26
HETATM   26  O   UNL     1       2.011  -3.739  -2.584  1.00  0.00    -0.356 OA
HETATM   27  C   UNL     1       1.564  -4.428  -1.423  1.00  0.00     0.210 C 
ENDBRANCH  22  26
ENDBRANCH   1  20
BRANCH   3  28
HETATM   28  C   UNL     1       4.607   2.952  -6.604  1.00  0.00     0.189 C 
BRANCH  28  29
HETATM   29  C   UNL     1       5.739   3.848  -6.165  1.00  0.00    -0.038 A 
HETATM   30  C   UNL     1       6.679   4.320  -7.094  1.00  0.00     0.009 A 
HETATM   31  C   UNL     1       7.708   5.172  -6.688  1.00  0.00     0.001 A 
HETATM   32  C   UNL     1       7.809   5.562  -5.354  1.00  0.00     0.000 A 
HETATM   33  C   UNL     1       6.882   5.100  -4.422  1.00  0.00     0.001 A 
HETATM   34  C   UNL     1       5.852   4.250  -4.825  1.00  0.00     0.009 A 
ENDBRANCH  28  29
ENDBRANCH   3  28
TORSDOF 7
