REMARK  3 active torsions:
REMARK  status: ('A' for Active; 'I' for Inactive)
REMARK    1  A    between atoms: C_4  and  C_5 
REMARK    2  A    between atoms: C_9  and  C_10 
REMARK       I    between atoms: C_10  and  N_11 
REMARK    3  A    between atoms: N_11  and  N_12 
ROOT
HETATM    1  C   UNL     1       5.956  -1.165  -0.666  1.00  0.00     0.289 C 
HETATM    2  N   UNL     1       5.836  -2.537  -0.824  1.00  0.00    -0.241 N 
HETATM    3  O   UNL     1       7.002  -0.535  -0.771  1.00  0.00    -0.264 OA
HETATM    4  H   UNL     1       4.963  -2.985  -0.590  1.00  0.00     0.192 HD
ENDROOT
BRANCH   1   5
HETATM    5  C   UNL     1       4.700  -0.500  -0.412  1.00  0.00     0.121 A 
HETATM    6  N   UNL     1       4.610   0.863  -0.354  1.00  0.00    -0.272 N 
HETATM    7  N   UNL     1       3.359   1.324  -0.197  1.00  0.00    -0.174 NA
HETATM    8  H   UNL     1       5.374   1.527  -0.451  1.00  0.00     0.189 HD
HETATM    9  C   UNL     1       2.600   0.222  -0.098  1.00  0.00     0.089 A 
HETATM   10  C   UNL     1       3.407  -0.944  -0.211  1.00  0.00     0.071 A 
BRANCH   9  11
HETATM   11  C   UNL     1       1.146   0.286   0.061  1.00  0.00    -0.006 A 
HETATM   12  C   UNL     1       0.429   1.393  -0.415  1.00  0.00     0.014 A 
HETATM   13  C   UNL     1      -0.963   1.442  -0.307  1.00  0.00     0.001 A 
HETATM   14  C   UNL     1      -1.653   0.387   0.286  1.00  0.00     0.000 A 
HETATM   15  C   UNL     1      -0.953  -0.714   0.776  1.00  0.00     0.001 A 
HETATM   16  C   UNL     1       0.439  -0.765   0.664  1.00  0.00     0.014 A 
ENDBRANCH   9  11
ENDBRANCH   1   5
BRANCH   2  17
HETATM   17  N   UNL     1       6.925  -3.329  -1.015  1.00  0.00    -0.165 NA
HETATM   18  C   UNL     1       6.740  -4.528  -1.472  1.00  0.00     0.157 A 
HETATM   19  C   UNL     1       7.887  -5.560  -1.515  1.00  0.00     0.277 A 
HETATM   20  C   UNL     1       5.559  -5.228  -2.005  1.00  0.00     0.027 A 
HETATM   21  O   UNL     1       9.042  -5.374  -1.208  1.00  0.00    -0.266 OA
HETATM   22  N   UNL     1       7.306  -6.731  -1.948  1.00  0.00    -0.321 N 
HETATM   23  C   UNL     1       5.962  -6.544  -2.242  1.00  0.00     0.048 A 
HETATM   24  H   UNL     1       7.832  -7.583  -2.073  1.00  0.00     0.169 HD
HETATM   25  C   UNL     1       5.097  -7.495  -2.746  1.00  0.00     0.030 A 
HETATM   26  C   UNL     1       3.791  -7.091  -3.036  1.00  0.00     0.002 A 
HETATM   27  C   UNL     1       3.389  -5.757  -2.839  1.00  0.00     0.001 A 
HETATM   28  C   UNL     1       4.281  -4.807  -2.330  1.00  0.00     0.016 A 
ENDBRANCH   2  17
TORSDOF 3
