REMARK  3 active torsions:
REMARK  status: ('A' for Active; 'I' for Inactive)
REMARK    1  A    between atoms: N_5  and  C_6 
REMARK    2  A    between atoms: C_7  and  C_8 
REMARK       I    between atoms: C_8  and  N_9 
REMARK    3  A    between atoms: N_9  and  N_10 
ROOT
HETATM    1  C   UNL     1       2.046  -2.415  -0.503  1.00  0.00     0.056 C 
HETATM    2  C   UNL     1       2.763  -1.077  -0.499  1.00  0.00     0.158 C 
HETATM    3  C   UNL     1       2.229  -0.121   0.573  1.00  0.00     0.267 C 
HETATM    4  O   UNL     1       1.054   0.222   0.670  1.00  0.00    -0.269 OA
HETATM    5  N   UNL     1       3.310   0.388   1.263  1.00  0.00    -0.230 N 
HETATM    6  C   UNL     1       4.481  -0.106   0.737  1.00  0.00     0.333 C 
HETATM    7  O   UNL     1       5.611   0.307   0.957  1.00  0.00    -0.246 OA
HETATM    8  N   UNL     1       4.170  -1.164  -0.123  1.00  0.00    -0.309 N 
HETATM    9  C   UNL     1       5.145  -1.627  -1.117  1.00  0.00     0.134 C 
HETATM   10  C   UNL     1       5.190  -0.705  -2.355  1.00  0.00     0.061 C 
HETATM   11  C   UNL     1       3.820  -0.195  -2.683  1.00  0.00    -0.018 A 
HETATM   12  C   UNL     1       2.740  -0.379  -1.836  1.00  0.00     0.055 A 
HETATM   13  N   UNL     1       1.663   0.282  -2.367  1.00  0.00    -0.356 N 
HETATM   14  H   UNL     1       0.749   0.361  -1.937  1.00  0.00     0.166 HD
HETATM   15  C   UNL     1       2.046   0.942  -3.516  1.00  0.00     0.043 A 
HETATM   16  C   UNL     1       3.390   0.638  -3.750  1.00  0.00    -0.001 A 
HETATM   17  C   UNL     1       1.314   1.799  -4.345  1.00  0.00     0.030 A 
HETATM   18  C   UNL     1       1.973   2.359  -5.444  1.00  0.00     0.002 A 
HETATM   19  C   UNL     1       3.309   2.066  -5.707  1.00  0.00     0.001 A 
HETATM   20  C   UNL     1       4.029   1.208  -4.868  1.00  0.00     0.014 A 
ENDROOT
BRANCH   5  21
HETATM   21  C   UNL     1       3.204   1.626   1.930  1.00  0.00     0.063 A 
HETATM   22  C   UNL     1       2.589   1.730   3.187  1.00  0.00     0.060 A 
HETATM   23  C   UNL     1       2.301   2.993   3.723  1.00  0.00     0.019 A 
HETATM   24  C   UNL     1       2.653   4.148   3.025  1.00  0.00     0.001 A 
HETATM   25  C   UNL     1       3.305   4.049   1.797  1.00  0.00     0.002 A 
HETATM   26  C   UNL     1       3.582   2.794   1.249  1.00  0.00     0.031 A 
BRANCH  22  27
HETATM   27  C   UNL     1       2.287   0.549   4.032  1.00  0.00     0.268 C 
HETATM   28  N   UNL     1       3.280  -0.425   4.075  1.00  0.00    -0.290 N 
HETATM   29  H   UNL     1       4.181  -0.281   3.619  1.00  0.00     0.183 HD
HETATM   30  O   UNL     1       1.257   0.493   4.697  1.00  0.00    -0.266 OA
BRANCH  28  31
HETATM   31  N   UNL     1       3.118  -1.542   4.919  1.00  0.00    -0.247 NA
HETATM   32  H   UNL     1       2.110  -1.746   4.947  1.00  0.00     0.143 HD
HETATM   33  H   UNL     1       3.313  -1.232   5.877  1.00  0.00     0.143 HD
ENDBRANCH  28  31
ENDBRANCH  22  27
ENDBRANCH   5  21
TORSDOF 3
