REMARK  9 active torsions:
REMARK  status: ('A' for Active; 'I' for Inactive)
REMARK    1  A    between atoms: C_2  and  C_3 
REMARK    2  A    between atoms: C_4  and  O_5 
REMARK    3  A    between atoms: C_6  and  C_7 
REMARK    4  A    between atoms: C_12  and  C_13 
REMARK    5  A    between atoms: C_13  and  C_14 
REMARK    6  A    between atoms: C_14  and  N_15 
REMARK    7  A    between atoms: N_20  and  C_21 
REMARK    8  A    between atoms: C_21  and  C_22 
REMARK    9  A    between atoms: C_22  and  N_23 
ROOT
HETATM    1  N   UNL     1       2.843  -4.011  -5.286  1.00  0.00    -0.174 N 
HETATM    2  C   UNL     1       3.886  -3.220  -5.734  1.00  0.00     0.681 A 
HETATM    3  N   UNL     1       5.018  -3.018  -5.055  1.00  0.00    -0.234 N 
HETATM    4  H   UNL     1       5.845  -2.573  -5.417  1.00  0.00     0.174 HD
HETATM    5  H   UNL     1       5.015  -3.221  -4.049  1.00  0.00     0.174 HD
HETATM    6  N   UNL     1       3.649  -2.663  -7.002  1.00  0.00    -0.180 N 
HETATM    7  C   UNL     1       2.373  -3.199  -7.384  1.00  0.00     0.079 A 
HETATM    8  C   UNL     1       1.873  -3.978  -6.329  1.00  0.00     0.079 A 
HETATM    9  C   UNL     1       1.681  -3.078  -8.571  1.00  0.00     0.032 A 
HETATM   10  C   UNL     1       0.437  -3.713  -8.662  1.00  0.00     0.002 A 
HETATM   11  C   UNL     1      -0.074  -4.468  -7.591  1.00  0.00     0.002 A 
HETATM   12  C   UNL     1       0.654  -4.618  -6.409  1.00  0.00     0.032 A 
ENDROOT
BRANCH   1  13
HETATM   13  C   UNL     1       2.796  -4.925  -4.131  1.00  0.00     0.231 C 
BRANCH  13  14
HETATM   14  C   UNL     1       3.259  -4.342  -2.818  1.00  0.00     0.178 C 
HETATM   15  O   UNL     1       3.910  -3.296  -2.786  1.00  0.00    -0.290 OA
BRANCH  14  16
HETATM   16  C   UNL     1       2.946  -5.098  -1.566  1.00  0.00     0.013 A 
HETATM   17  C   UNL     1       2.668  -6.469  -1.595  1.00  0.00     0.026 A 
HETATM   18  C   UNL     1       2.385  -7.201  -0.424  1.00  0.00    -0.016 A 
HETATM   19  C   UNL     1       2.442  -6.483   0.792  1.00  0.00     0.079 A 
HETATM   20  C   UNL     1       2.686  -5.088   0.870  1.00  0.00    -0.016 A 
HETATM   21  C   UNL     1       2.953  -4.422  -0.344  1.00  0.00     0.026 A 
BRANCH  18  22
HETATM   22  C   UNL     1       2.117  -8.726  -0.552  1.00  0.00    -0.021 C 
HETATM   23  C   UNL     1       1.411  -9.393   0.651  1.00  0.00     0.019 C 
HETATM   24  C   UNL     1       1.203  -9.028  -1.772  1.00  0.00     0.019 C 
HETATM   25  C   UNL     1       3.469  -9.439  -0.760  1.00  0.00     0.019 C 
ENDBRANCH  18  22
BRANCH  19  26
HETATM   26  O   UNL     1       2.353  -7.178   1.961  1.00  0.00    -0.360 OA
HETATM   27  H   UNL     1       1.408  -7.225   2.190  1.00  0.00     0.217 HD
ENDBRANCH  19  26
BRANCH  20  28
HETATM   28  C   UNL     1       2.745  -4.307   2.212  1.00  0.00    -0.021 C 
HETATM   29  C   UNL     1       4.149  -4.495   2.820  1.00  0.00     0.019 C 
HETATM   30  C   UNL     1       1.683  -4.761   3.244  1.00  0.00     0.019 C 
HETATM   31  C   UNL     1       2.506  -2.785   2.029  1.00  0.00     0.019 C 
ENDBRANCH  20  28
ENDBRANCH  14  16
ENDBRANCH  13  14
ENDBRANCH   1  13
BRANCH   6  32
HETATM   32  C   UNL     1       4.606  -1.966  -7.874  1.00  0.00     0.175 C 
BRANCH  32  33
HETATM   33  C   UNL     1       4.130  -0.646  -8.526  1.00  0.00     0.256 C 
BRANCH  33  34
HETATM   34  N   UNL     1       4.236   0.578  -7.636  1.00  0.00    -0.066 N 
HETATM   35  H   UNL     1       5.192   0.655  -7.262  1.00  0.00     0.280 HD
HETATM   36  C   UNL     1       4.019   1.855  -8.487  1.00  0.00     0.261 C 
HETATM   37  C   UNL     1       4.104   3.100  -7.603  1.00  0.00     0.195 C 
HETATM   38  O   UNL     1       3.147   3.026  -6.543  1.00  0.00    -0.388 OA
HETATM   39  C   UNL     1       3.388   1.909  -5.687  1.00  0.00     0.195 C 
HETATM   40  C   UNL     1       3.260   0.591  -6.461  1.00  0.00     0.261 C 
ENDBRANCH  33  34
ENDBRANCH  32  33
ENDBRANCH   6  32
TORSDOF 9
