REMARK  6 active torsions:
REMARK  status: ('A' for Active; 'I' for Inactive)
REMARK    1  A    between atoms: C_5  and  N_6 
REMARK    2  A    between atoms: N_6  and  C_7 
REMARK    3  A    between atoms: C_7  and  C_8 
REMARK    4  A    between atoms: N_10  and  C_12 
REMARK    5  A    between atoms: C_12  and  C_13 
REMARK    6  A    between atoms: C_14  and  O_15 
ROOT
HETATM    1  C   UNL     1       5.478   4.884  -0.723  1.00  0.00     0.031 C 
HETATM    2  C   UNL     1       6.877   4.923  -0.105  1.00  0.00     0.241 C 
HETATM    3  N   UNL     1       7.289   6.372  -0.136  1.00  0.00    -0.067 N 
HETATM    4  H   UNL     1       7.595   6.639   0.820  1.00  0.00     0.280 HD
HETATM    5  C   UNL     1       6.081   7.210  -0.464  1.00  0.00     0.235 C 
HETATM    6  C   UNL     1       4.914   6.245  -0.312  1.00  0.00     0.035 C 
ENDROOT
BRANCH   1   7
HETATM    7  C   UNL     1       5.480   4.688  -2.250  1.00  0.00     0.127 C 
BRANCH   7   8
HETATM    8  N   UNL     1       6.099   3.416  -2.604  1.00  0.00    -0.376 N 
HETATM    9  H   UNL     1       6.875   3.535  -3.265  1.00  0.00     0.161 HD
BRANCH   8  10
HETATM   10  C   UNL     1       5.413   2.247  -2.935  1.00  0.00     0.101 A 
HETATM   11  N   UNL     1       4.074   2.137  -2.911  1.00  0.00    -0.347 N 
HETATM   12  C   UNL     1       3.412   1.002  -3.220  1.00  0.00     0.007 A 
HETATM   13  H   UNL     1       3.522   2.947  -2.663  1.00  0.00     0.167 HD
HETATM   14  C   UNL     1       1.916   1.006  -3.206  1.00  0.00     0.068 C 
HETATM   15  C   UNL     1       4.133  -0.142  -3.558  1.00  0.00     0.025 A 
HETATM   16  C   UNL     1       5.518  -0.094  -3.564  1.00  0.00     0.006 A 
HETATM   17  C   UNL     1       6.158   1.099  -3.248  1.00  0.00     0.048 A 
ENDBRANCH   8  10
ENDBRANCH   7   8
ENDBRANCH   1   7
BRANCH   3  18
HETATM   18  C   UNL     1       8.518   6.664  -0.961  1.00  0.00     0.276 C 
BRANCH  18  19
HETATM   19  C   UNL     1       9.033   8.066  -0.801  1.00  0.00     0.002 A 
HETATM   20  C   UNL     1       9.301   8.595   0.469  1.00  0.00     0.091 A 
HETATM   21  C   UNL     1       9.829   9.881   0.616  1.00  0.00     0.044 A 
HETATM   22 BR   UNL     1      10.188  10.585   2.335  1.00  0.00    -0.048 Br
HETATM   23  C   UNL     1      10.092  10.656  -0.510  1.00  0.00     0.022 A 
HETATM   24  C   UNL     1       9.831  10.144  -1.780  1.00  0.00     0.002 A 
HETATM   25  C   UNL     1       9.309   8.855  -1.928  1.00  0.00     0.012 A 
BRANCH  20  26
HETATM   26  O   UNL     1       9.009   7.809   1.559  1.00  0.00    -0.359 OA
HETATM   27  H   UNL     1       9.378   8.280   2.340  1.00  0.00     0.218 HD
ENDBRANCH  20  26
ENDBRANCH  18  19
ENDBRANCH   3  18
TORSDOF 6
