REMARK  4 active torsions:
REMARK  status: ('A' for Active; 'I' for Inactive)
REMARK    1  A    between atoms: C_2  and  C_3 
REMARK    2  A    between atoms: C_3  and  N_4 
REMARK    3  A    between atoms: N_8  and  C_9 
REMARK    4  A    between atoms: C_9  and  C_10 
ROOT
HETATM    1  N   UNL     1       4.557   0.628  -0.283  1.00  0.00    -0.061 N 
HETATM    2  H   UNL     1       4.364  -0.377  -0.213  1.00  0.00     0.280 HD
HETATM    3  C   UNL     1       5.541   0.938   0.847  1.00  0.00     0.216 C 
HETATM    4  C   UNL     1       6.575  -0.219   0.984  1.00  0.00     0.305 C 
HETATM    5  N   UNL     1       7.754  -0.125   0.122  1.00  0.00     0.095 N 
HETATM    6  C   UNL     1       7.474   0.020  -1.307  1.00  0.00     0.279 C 
HETATM    7  C   UNL     1       6.581   1.224  -1.665  1.00  0.00     0.040 C 
HETATM    8  C   UNL     1       5.102   0.866  -1.668  1.00  0.00     0.242 C 
HETATM    9  C   UNL     1       6.186   2.307   0.614  1.00  0.00     0.035 C 
HETATM   10  C   UNL     1       6.829   2.447  -0.770  1.00  0.00     0.010 C 
ENDROOT
BRANCH   1  11
HETATM   11  C   UNL     1       3.195   1.282  -0.113  1.00  0.00     0.274 C 
BRANCH  11  12
HETATM   12  C   UNL     1       2.427   0.791   1.084  1.00  0.00    -0.032 A 
HETATM   13  C   UNL     1       2.225   1.632   2.188  1.00  0.00     0.011 A 
HETATM   14  C   UNL     1       1.516   1.203   3.314  1.00  0.00     0.031 A 
HETATM   15  C   UNL     1       1.008  -0.099   3.302  1.00  0.00     0.042 A 
HETATM   16  C   UNL     1       1.184  -0.966   2.225  1.00  0.00    -0.008 A 
HETATM   17  N   UNL     1       0.270  -0.773   4.250  1.00  0.00    -0.365 N 
HETATM   18  C   UNL     1       1.903  -0.516   1.100  1.00  0.00     0.022 A 
HETATM   19  C   UNL     1       0.530  -2.184   2.555  1.00  0.00     0.030 A 
HETATM   20  C   UNL     1      -0.022  -2.036   3.807  1.00  0.00     0.089 A 
HETATM   21  H   UNL     1      -0.024  -0.387   5.138  1.00  0.00     0.165 HD
ENDBRANCH  11  12
ENDBRANCH   1  11
BRANCH   5  22
HETATM   22  C   UNL     1       8.704  -1.225   0.397  1.00  0.00     0.311 C 
BRANCH  22  23
HETATM   23  C   UNL     1      10.086  -0.972  -0.160  1.00  0.00    -0.027 A 
HETATM   24  C   UNL     1      10.800   0.180   0.190  1.00  0.00     0.028 A 
HETATM   25  C   UNL     1      12.060   0.373  -0.352  1.00  0.00     0.116 A 
HETATM   26  N   UNL     1      12.650  -0.492  -1.202  1.00  0.00    -0.273 NA
HETATM   27  C   UNL     1      11.957  -1.606  -1.515  1.00  0.00     0.116 A 
HETATM   28  C   UNL     1      10.689  -1.888  -1.027  1.00  0.00     0.028 A 
ENDBRANCH  22  23
ENDBRANCH   5  22
TORSDOF 4
