REMARK  4 active torsions:
REMARK  status: ('A' for Active; 'I' for Inactive)
REMARK    1  A    between atoms: C_3  and  N_4 
REMARK    2  A    between atoms: N_4  and  C_5 
REMARK    3  A    between atoms: C_5  and  C_6 
REMARK    4  A    between atoms: C_14  and  C_15 
ROOT
HETATM    1  C   UNL     1      -0.704   1.159   0.368  1.00  0.00     0.006 A 
HETATM    2  C   UNL     1       0.661   1.241   0.106  1.00  0.00     0.048 A 
HETATM    3  C   UNL     1       1.394   0.090  -0.222  1.00  0.00     0.101 A 
HETATM    4  N   UNL     1       0.744  -1.085  -0.217  1.00  0.00    -0.342 N 
HETATM    5  H   UNL     1       1.264  -1.931  -0.412  1.00  0.00     0.167 HD
HETATM    6  C   UNL     1      -0.571  -1.213   0.041  1.00  0.00     0.044 A 
HETATM    7  C   UNL     1      -1.329  -0.079   0.328  1.00  0.00     0.030 A 
ENDROOT
BRANCH   6   8
HETATM    8  C   UNL     1      -1.094  -2.576  -0.035  1.00  0.00    -0.007 A 
HETATM    9  C   UNL     1      -2.256  -2.853  -0.777  1.00  0.00     0.053 A 
HETATM   10  C   UNL     1      -2.765  -4.151  -0.860  1.00  0.00     0.103 A 
HETATM   11  C   UNL     1      -2.137  -5.193  -0.181  1.00  0.00     0.102 A 
HETATM   12  O   UNL     1      -3.893  -4.317  -1.619  1.00  0.00    -0.346 OA
HETATM   13  O   UNL     1      -2.602  -6.480  -0.187  1.00  0.00    -0.346 OA
HETATM   14  C   UNL     1      -0.977  -4.945   0.547  1.00  0.00     0.040 A 
HETATM   15  C   UNL     1      -3.964  -6.542  -0.632  1.00  0.00     0.202 C 
HETATM   16  C   UNL     1      -4.156  -5.702  -1.885  1.00  0.00     0.202 C 
HETATM   17  C   UNL     1      -0.461  -3.647   0.626  1.00  0.00     0.016 A 
ENDBRANCH   6   8
BRANCH   3  18
HETATM   18  N   UNL     1       2.767   0.191  -0.411  1.00  0.00    -0.372 N 
HETATM   19  H   UNL     1       3.011   1.071  -0.873  1.00  0.00     0.161 HD
BRANCH  18  20
HETATM   20  C   UNL     1       3.620  -0.897  -0.888  1.00  0.00     0.162 C 
BRANCH  20  21
HETATM   21  C   UNL     1       3.722  -2.017   0.096  1.00  0.00    -0.005 A 
HETATM   22  C   UNL     1       3.756  -3.338  -0.306  1.00  0.00     0.128 A 
HETATM   23  N   UNL     1       3.798  -4.375   0.548  1.00  0.00    -0.254 NA
HETATM   24  C   UNL     1       3.880  -4.069   1.851  1.00  0.00     0.232 A 
HETATM   25  N   UNL     1       3.877  -2.828   2.353  1.00  0.00    -0.254 NA
HETATM   26  C   UNL     1       3.828  -1.823   1.460  1.00  0.00     0.128 A 
ENDBRANCH  20  21
ENDBRANCH  18  20
ENDBRANCH   3  18
TORSDOF 4
