REMARK  4 active torsions:
REMARK  status: ('A' for Active; 'I' for Inactive)
REMARK    1  A    between atoms: N_2  and  C_4 
REMARK    2  A    between atoms: N_2  and  C_16 
REMARK    3  A    between atoms: C_4  and  C_5 
REMARK    4  A    between atoms: C_16  and  C_17 
ROOT
HETATM    1  C   UNL     1       0.758  -0.289   0.182  1.00  0.00     0.270 C 
HETATM    2  N   UNL     1       2.259  -0.254   0.166  1.00  0.00    -0.064 N 
HETATM    3  H   UNL     1       2.522   0.529  -0.461  1.00  0.00     0.280 HD
ENDROOT
BRANCH   2   4
HETATM    4  C   UNL     1       2.860   0.107   1.514  1.00  0.00     0.312 C 
BRANCH   4   5
HETATM    5  C   UNL     1       2.560   1.549   1.904  1.00  0.00     0.133 A 
HETATM    6  N   UNL     1       2.455   2.445   0.973  1.00  0.00    -0.233 NA
HETATM    7  C   UNL     1       2.164   3.767   1.371  1.00  0.00     0.074 A 
HETATM    8  C   UNL     1       1.988   4.128   2.712  1.00  0.00     0.061 A 
HETATM    9  C   UNL     1       2.036   4.756   0.394  1.00  0.00     0.032 A 
HETATM   10  C   UNL     1       2.125   3.067   3.721  1.00  0.00     0.259 A 
HETATM   11  C   UNL     1       1.690   5.441   3.085  1.00  0.00     0.019 A 
HETATM   12  O   UNL     1       1.990   3.264   4.920  1.00  0.00    -0.267 OA
HETATM   13  N   UNL     1       2.410   1.815   3.235  1.00  0.00    -0.309 N 
HETATM   14  H   UNL     1       2.510   1.113   3.958  1.00  0.00     0.170 HD
HETATM   15  C   UNL     1       1.565   6.416   2.098  1.00  0.00     0.001 A 
HETATM   16  C   UNL     1       1.738   6.075   0.756  1.00  0.00     0.002 A 
ENDBRANCH   4   5
ENDBRANCH   2   4
BRANCH   2  17
HETATM   17  C   UNL     1       2.884  -1.494  -0.418  1.00  0.00     0.276 C 
BRANCH  17  18
HETATM   18  C   UNL     1       2.522  -1.747  -1.855  1.00  0.00     0.003 A 
HETATM   19  C   UNL     1       2.905  -0.848  -2.863  1.00  0.00     0.088 A 
HETATM   20  C   UNL     1       2.535  -1.060  -4.196  1.00  0.00     0.001 A 
HETATM   21  O   UNL     1       3.619   0.258  -2.473  1.00  0.00    -0.325 OA
HETATM   22  C   UNL     1       2.937  -0.069  -5.247  1.00  0.00     0.212 C 
HETATM   23  C   UNL     1       1.812  -2.210  -4.536  1.00  0.00     0.036 A 
HETATM   24  O   UNL     1       3.229   1.180  -4.632  1.00  0.00    -0.362 OA
HETATM   25  C   UNL     1       4.164   0.990  -3.582  1.00  0.00     0.345 C 
HETATM   26  C   UNL     1       1.443  -3.116  -3.545  1.00  0.00     0.035 A 
HETATM   27 CL   UNL     1       0.541  -4.519  -3.959  1.00  0.00    -0.084 Cl
HETATM   28  C   UNL     1       1.789  -2.891  -2.212  1.00  0.00     0.035 A 
ENDBRANCH  17  18
ENDBRANCH   2  17
TORSDOF 4
