REMARK  10 active torsions:
REMARK  status: ('A' for Active; 'I' for Inactive)
REMARK    1  A    between atoms: O_2  and  C_3 
REMARK    2  A    between atoms: C_3  and  C_4 
REMARK    3  A    between atoms: C_8  and  N_9 
REMARK       I    between atoms: N_9  and  C_10 
REMARK    4  A    between atoms: C_10  and  C_11 
REMARK    5  A    between atoms: C_12  and  C_13 
REMARK    6  A    between atoms: C_22  and  C_23 
REMARK    7  A    between atoms: C_23  and  N_24 
REMARK    8  A    between atoms: C_26  and  C_27 
REMARK    9  A    between atoms: C_27  and  C_28 
REMARK   10  A    between atoms: C_28  and  O_29 
ROOT
HETATM    1  C   UNL     1       2.496   0.539   2.708  1.00  0.00     0.110 C 
HETATM    2  S   UNL     1       2.060  -0.467   4.021  1.00  0.00    -0.061 SA
HETATM    3  C   UNL     1       1.248   0.794   4.808  1.00  0.00     0.111 A 
HETATM    4  C   UNL     1       1.290   1.992   4.107  1.00  0.00     0.028 A 
HETATM    5  C   UNL     1       2.110   1.862   2.920  1.00  0.00     0.071 C 
HETATM    6  N   UNL     1       0.628   0.558   5.986  1.00  0.00    -0.243 NA
HETATM    7  C   UNL     1      -0.065   1.600   6.490  1.00  0.00     0.061 A 
HETATM    8  C   UNL     1      -0.160   2.835   5.863  1.00  0.00     0.030 A 
HETATM    9  C   UNL     1       0.519   3.039   4.663  1.00  0.00     0.019 A 
ENDROOT
BRANCH   5  10
HETATM   10  N   UNL     1       2.477   2.855   2.000  1.00  0.00    -0.321 N 
HETATM   11  C   UNL     1       2.572   4.204   2.257  1.00  0.00     0.245 C 
HETATM   12  O   UNL     1       2.434   4.751   3.344  1.00  0.00    -0.268 OA
HETATM   13  H   UNL     1       2.894   2.516   1.132  1.00  0.00     0.169 HD
BRANCH  11  14
HETATM   14  C   UNL     1       2.933   4.980   1.038  1.00  0.00     0.075 C 
HETATM   15  C   UNL     1       3.063   6.313   1.112  1.00  0.00     0.017 C 
BRANCH  15  16
HETATM   16  C   UNL     1       3.341   7.147  -0.061  1.00  0.00    -0.036 A 
HETATM   17  C   UNL     1       2.537   8.272  -0.294  1.00  0.00     0.014 A 
HETATM   18  C   UNL     1       2.771   9.088  -1.403  1.00  0.00     0.043 A 
HETATM   19  C   UNL     1       3.815   8.786  -2.268  1.00  0.00     0.116 A 
HETATM   20  F   UNL     1       4.038   9.567  -3.332  1.00  0.00    -0.206 F 
HETATM   21  C   UNL     1       4.635   7.686  -2.042  1.00  0.00     0.043 A 
HETATM   22  C   UNL     1       4.400   6.866  -0.936  1.00  0.00     0.014 A 
ENDBRANCH  15  16
ENDBRANCH  11  14
ENDBRANCH   5  10
BRANCH   1  23
HETATM   23  C   UNL     1       3.226   0.025   1.558  1.00  0.00     0.302 C 
HETATM   24  O   UNL     1       3.585   0.726   0.616  1.00  0.00    -0.259 OA
BRANCH  23  25
HETATM   25  O   UNL     1       3.438  -1.318   1.641  1.00  0.00    -0.322 OA
HETATM   26  C   UNL     1       4.119  -1.878   0.515  1.00  0.00     0.213 C 
ENDBRANCH  23  25
ENDBRANCH   1  23
BRANCH   7  27
HETATM   27  C   UNL     1      -0.737   1.381   7.832  1.00  0.00     0.294 C 
BRANCH  27  28
HETATM   28  N   UNL     1       0.194   1.044   9.006  1.00  0.00    -0.061 N 
HETATM   29  H   UNL     1      -0.401   1.086   9.842  1.00  0.00     0.280 HD
HETATM   30  C   UNL     1       0.803  -0.368   8.987  1.00  0.00     0.190 C 
HETATM   31  C   UNL     1       1.634  -0.537  10.276  1.00  0.00     0.033 C 
HETATM   32  C   UNL     1       2.677   0.555  10.464  1.00  0.00     0.004 C 
HETATM   33  C   UNL     1       2.025   1.927  10.439  1.00  0.00     0.028 C 
HETATM   34  C   UNL     1       1.248   2.127   9.152  1.00  0.00     0.235 C 
BRANCH  30  35
HETATM   35  C   UNL     1      -0.293  -1.448   8.970  1.00  0.00     0.059 C 
BRANCH  35  36
HETATM   36  C   UNL     1      -0.458  -2.133   7.617  1.00  0.00     0.166 C 
BRANCH  36  37
HETATM   37  O   UNL     1      -1.487  -3.102   7.755  1.00  0.00    -0.401 OA
HETATM   38  H   UNL     1      -1.523  -3.617   6.928  1.00  0.00     0.209 HD
ENDBRANCH  36  37
ENDBRANCH  35  36
ENDBRANCH  30  35
ENDBRANCH  27  28
ENDBRANCH   7  27
TORSDOF 10
