REMARK  6 active torsions:
REMARK  status: ('A' for Active; 'I' for Inactive)
REMARK    1  A    between atoms: C_2  and  N_3 
REMARK    2  A    between atoms: C_2  and  C_16 
REMARK    3  A    between atoms: N_3  and  C_6 
REMARK    4  A    between atoms: C_16  and  C_17 
REMARK       I    between atoms: C_17  and  N_18 
REMARK    5  A    between atoms: N_18  and  C_19 
REMARK    6  A    between atoms: C_21  and  O_22 
ROOT
HETATM    1  C   UNL     1       2.274  -1.230  -0.761  1.00  0.00     0.040 C 
HETATM    2  C   UNL     1       2.135  -0.429   0.527  1.00  0.00     0.191 C 
ENDROOT
BRANCH   2   3
HETATM    3  N   UNL     1       2.505   1.016   0.297  1.00  0.00    -0.063 N 
HETATM    4  H   UNL     1       2.517   1.447   1.246  1.00  0.00     0.278 HD
HETATM    5  H   UNL     1       3.479   1.074  -0.018  1.00  0.00     0.278 HD
BRANCH   3   6
HETATM    6  C   UNL     1       1.673   1.956  -0.552  1.00  0.00     0.221 C 
HETATM    7  C   UNL     1       1.850   1.754  -2.037  1.00  0.00    -0.011 A 
HETATM    8  C   UNL     1       0.777   1.498  -2.906  1.00  0.00     0.009 A 
HETATM    9  C   UNL     1       3.148   1.865  -2.586  1.00  0.00     0.011 A 
HETATM   10  C   UNL     1       1.019   1.328  -4.278  1.00  0.00     0.019 A 
HETATM   11  S   UNL     1      -0.926   1.420  -2.395  1.00  0.00    -0.129 SA
HETATM   12  C   UNL     1       2.310   1.412  -4.796  1.00  0.00     0.001 A 
HETATM   13  C   UNL     1       3.375   1.687  -3.951  1.00  0.00     0.001 A 
HETATM   14  C   UNL     1      -0.755   1.125  -0.624  1.00  0.00     0.082 C 
HETATM   15  C   UNL     1       0.246   2.082  -0.006  1.00  0.00     0.048 C 
ENDBRANCH   3   6
ENDBRANCH   2   3
BRANCH   2  16
HETATM   16  C   UNL     1       3.049  -1.038   1.616  1.00  0.00     0.135 C 
BRANCH  16  17
HETATM   17  C   UNL     1       2.925  -0.284   2.918  1.00  0.00     0.224 C 
HETATM   18  N   UNL     1       3.250  -0.835   4.114  1.00  0.00    -0.327 N 
HETATM   19  H   UNL     1       2.973  -0.241   4.892  1.00  0.00     0.169 HD
HETATM   20  O   UNL     1       2.517   0.886   2.882  1.00  0.00    -0.273 OA
BRANCH  18  21
HETATM   21  C   UNL     1       3.859  -2.051   4.489  1.00  0.00     0.037 A 
HETATM   22  C   UNL     1       4.592  -2.884   3.636  1.00  0.00     0.066 A 
HETATM   23  C   UNL     1       5.158  -4.072   4.116  1.00  0.00     0.070 A 
HETATM   24  C   UNL     1       4.992  -4.426   5.455  1.00  0.00     0.037 A 
HETATM   25  C   UNL     1       4.294  -3.591   6.320  1.00  0.00     0.005 A 
HETATM   26  C   UNL     1       3.740  -2.405   5.840  1.00  0.00     0.029 A 
BRANCH  23  27
HETATM   27  O   UNL     1       5.888  -4.967   3.385  1.00  0.00    -0.356 OA
HETATM   28  C   UNL     1       6.273  -4.590   2.070  1.00  0.00     0.210 C 
ENDBRANCH  23  27
ENDBRANCH  18  21
ENDBRANCH  16  17
ENDBRANCH   2  16
TORSDOF 6
