REMARK  7 active torsions:
REMARK  status: ('A' for Active; 'I' for Inactive)
REMARK    1  A    between atoms: C_2  and  C_3 
REMARK    2  A    between atoms: C_3  and  N_4 
REMARK    3  A    between atoms: C_7  and  C_8 
REMARK    4  A    between atoms: C_8  and  N_9 
REMARK       I    between atoms: N_9  and  C_10 
REMARK       I    between atoms: C_10  and  N_11 
REMARK    5  A    between atoms: N_11  and  C_12 
REMARK    6  A    between atoms: C_16  and  N_17 
REMARK       I    between atoms: N_17  and  C_18 
REMARK    7  A    between atoms: C_18  and  C_19 
ROOT
HETATM    1  C   UNL     1       1.373   3.986  -4.134  1.00  0.00     0.036 A 
HETATM    2  C   UNL     1       2.724   4.330  -4.212  1.00  0.00     0.038 A 
HETATM    3  C   UNL     1       3.159   5.644  -3.937  1.00  0.00    -0.033 A 
HETATM    4  C   UNL     1       4.630   5.950  -4.047  1.00  0.00     0.050 C 
HETATM    5  C   UNL     1       2.218   6.620  -3.549  1.00  0.00     0.041 A 
HETATM    6  C   UNL     1       0.862   6.279  -3.547  1.00  0.00     0.032 A 
HETATM    7  C   UNL     1       0.441   4.983  -3.857  1.00  0.00     0.032 A 
ENDROOT
BRANCH   1   8
HETATM    8  N   UNL     1       0.882   2.687  -4.351  1.00  0.00    -0.309 N 
HETATM    9  C   UNL     1       1.448   1.463  -4.166  1.00  0.00     0.320 C 
HETATM   10  N   UNL     1       2.611   1.416  -3.450  1.00  0.00    -0.342 N 
HETATM   11  O   UNL     1       0.891   0.456  -4.594  1.00  0.00    -0.247 OA
HETATM   12  H   UNL     1       2.722   2.243  -2.874  1.00  0.00     0.164 HD
HETATM   13  H   UNL     1      -0.096   2.613  -4.613  1.00  0.00     0.170 HD
BRANCH  10  14
HETATM   14  C   UNL     1       3.157   0.213  -2.845  1.00  0.00     0.130 C 
BRANCH  14  15
HETATM   15  C   UNL     1       2.967  -1.125  -3.578  1.00  0.00     0.031 C 
HETATM   16  C   UNL     1       3.399  -1.106  -5.037  1.00  0.00     0.241 C 
HETATM   17  N   UNL     1       4.855  -1.566  -5.040  1.00  0.00    -0.071 N 
HETATM   18  H   UNL     1       4.892  -2.384  -5.663  1.00  0.00     0.279 HD
HETATM   19  C   UNL     1       5.183  -2.039  -3.641  1.00  0.00     0.235 C 
HETATM   20  C   UNL     1       3.832  -2.232  -2.984  1.00  0.00     0.035 C 
BRANCH  17  21
HETATM   21  C   UNL     1       5.794  -0.532  -5.603  1.00  0.00     0.234 C 
BRANCH  21  22
HETATM   22  C   UNL     1       7.186  -1.122  -5.791  1.00  0.00     0.023 C 
HETATM   23  C   UNL     1       8.131  -0.098  -6.400  1.00  0.00     0.007 C 
ENDBRANCH  21  22
ENDBRANCH  17  21
ENDBRANCH  14  15
ENDBRANCH  10  14
ENDBRANCH   1   8
BRANCH   5  24
HETATM   24  N   UNL     1       2.674   7.899  -3.168  1.00  0.00    -0.321 N 
HETATM   25  C   UNL     1       1.960   8.917  -2.555  1.00  0.00     0.279 C 
HETATM   26  O   UNL     1       0.766   8.881  -2.277  1.00  0.00    -0.265 OA
HETATM   27  H   UNL     1       3.665   8.096  -3.253  1.00  0.00     0.169 HD
BRANCH  25  28
HETATM   28  C   UNL     1       2.793  10.059  -2.220  1.00  0.00     0.142 A 
HETATM   29  O   UNL     1       4.113  10.067  -2.601  1.00  0.00    -0.317 OA
HETATM   30  C   UNL     1       4.647  11.236  -2.158  1.00  0.00     0.143 A 
HETATM   31  C   UNL     1       3.703  11.976  -1.487  1.00  0.00     0.027 A 
HETATM   32  C   UNL     1       2.507  11.220  -1.529  1.00  0.00     0.045 A 
ENDBRANCH  25  28
ENDBRANCH   5  24
TORSDOF 7
