REMARK  4 active torsions:
REMARK  status: ('A' for Active; 'I' for Inactive)
REMARK    1  A    between atoms: C_6  and  C_7 
REMARK    2  A    between atoms: C_14  and  C_15 
REMARK       I    between atoms: C_15  and  N_16 
REMARK    3  A    between atoms: N_16  and  N_17 
REMARK       I    between atoms: N_17  and  C_18 
REMARK       I    between atoms: C_18  and  N_19 
REMARK    4  A    between atoms: N_19  and  C_20 
ROOT
HETATM    1  C   UNL     1       1.001   2.744   0.605  1.00  0.00     0.271 C 
HETATM    2  N   UNL     1       1.597   3.491  -0.385  1.00  0.00    -0.262 N 
HETATM    3  O   UNL     1       0.451   3.233   1.586  1.00  0.00    -0.266 OA
HETATM    4  H   UNL     1       2.051   3.105  -1.213  1.00  0.00     0.190 HD
ENDROOT
BRANCH   1   5
HETATM    5  C   UNL     1       1.072   1.279   0.403  1.00  0.00     0.048 A 
HETATM    6  C   UNL     1      -0.096   0.489   0.371  1.00  0.00     0.009 A 
HETATM    7  C   UNL     1      -1.418   0.978   0.532  1.00  0.00     0.015 A 
HETATM    8  C   UNL     1       0.099  -0.883   0.134  1.00  0.00     0.068 A 
HETATM    9  C   UNL     1      -2.515   0.121   0.461  1.00  0.00     0.001 A 
HETATM   10  C   UNL     1      -2.310  -1.231   0.227  1.00  0.00     0.002 A 
HETATM   11  C   UNL     1      -1.010  -1.715   0.067  1.00  0.00     0.032 A 
HETATM   12  N   UNL     1       1.316  -1.428  -0.042  1.00  0.00    -0.248 NA
HETATM   13  C   UNL     1       2.428  -0.654   0.018  1.00  0.00     0.070 A 
HETATM   14  C   UNL     1       2.338   0.711   0.232  1.00  0.00     0.050 A 
BRANCH  13  15
HETATM   15  C   UNL     1       3.705  -1.362  -0.183  1.00  0.00     0.010 A 
HETATM   16  C   UNL     1       4.910  -0.932   0.377  1.00  0.00     0.130 A 
HETATM   17  N   UNL     1       6.113  -1.537   0.209  1.00  0.00    -0.272 NA
HETATM   18  C   UNL     1       6.129  -2.650  -0.552  1.00  0.00     0.116 A 
HETATM   19  C   UNL     1       5.001  -3.183  -1.148  1.00  0.00     0.020 A 
HETATM   20  C   UNL     1       3.784  -2.531  -0.957  1.00  0.00     0.017 A 
ENDBRANCH  13  15
ENDBRANCH   1   5
BRANCH   2  21
HETATM   21  N   UNL     1       1.568   4.889  -0.287  1.00  0.00    -0.249 N 
HETATM   22  C   UNL     1       2.479   5.582  -1.070  1.00  0.00     0.339 C 
HETATM   23  N   UNL     1       2.410   6.940  -0.847  1.00  0.00    -0.308 N 
HETATM   24  O   UNL     1       3.195   5.001  -1.879  1.00  0.00    -0.245 OA
HETATM   25  H   UNL     1       1.636   7.244  -0.273  1.00  0.00     0.170 HD
HETATM   26  H   UNL     1       1.325   5.239   0.638  1.00  0.00     0.192 HD
BRANCH  23  27
HETATM   27  C   UNL     1       3.182   7.947  -1.460  1.00  0.00     0.038 A 
HETATM   28  C   UNL     1       4.276   7.694  -2.292  1.00  0.00     0.055 A 
HETATM   29  C   UNL     1       4.988   8.750  -2.876  1.00  0.00     0.058 A 
HETATM   30 CL   UNL     1       6.328   8.353  -3.895  1.00  0.00    -0.082 Cl
HETATM   31  C   UNL     1       4.610  10.073  -2.626  1.00  0.00     0.055 A 
HETATM   32 CL   UNL     1       5.435  11.424  -3.315  1.00  0.00    -0.083 Cl
HETATM   33  C   UNL     1       3.525  10.332  -1.787  1.00  0.00     0.028 A 
HETATM   34  C   UNL     1       2.818   9.275  -1.205  1.00  0.00     0.031 A 
ENDBRANCH  23  27
ENDBRANCH   2  21
TORSDOF 4
