REMARK  6 active torsions:
REMARK  status: ('A' for Active; 'I' for Inactive)
REMARK    1  A    between atoms: C_6  and  C_7 
REMARK    2  A    between atoms: C_7  and  N_8 
REMARK    3  A    between atoms: C_12  and  C_13 
REMARK    4  A    between atoms: C_13  and  C_14 
REMARK    5  A    between atoms: N_23  and  C_24 
REMARK    6  A    between atoms: C_24  and  C_25 
ROOT
HETATM    1  C   UNL     1       6.458  -3.876   1.303  1.00  0.00     0.164 C 
HETATM    2  N   UNL     1       7.537  -4.826   1.506  1.00  0.00    -0.319 N 
HETATM    3  C   UNL     1       7.585  -5.278   2.808  1.00  0.00     0.326 C 
HETATM    4  O   UNL     1       8.486  -5.989   3.216  1.00  0.00    -0.247 OA
HETATM    5  N   UNL     1       6.514  -4.795   3.486  1.00  0.00    -0.265 N 
HETATM    6  C   UNL     1       5.867  -3.850   2.735  1.00  0.00     0.263 C 
HETATM    7  O   UNL     1       4.953  -3.133   3.115  1.00  0.00    -0.270 OA
HETATM    8  H   UNL     1       8.419  -4.785   1.008  1.00  0.00     0.166 HD
ENDROOT
BRANCH   1   9
HETATM    9  C   UNL     1       5.351  -4.444   0.324  1.00  0.00     0.033 C 
HETATM   10  C   UNL     1       4.626  -5.723   0.810  1.00  0.00     0.036 C 
HETATM   11  C   UNL     1       5.445  -7.007   0.700  1.00  0.00     0.235 C 
HETATM   12  N   UNL     1       5.923  -7.196  -0.722  1.00  0.00    -0.067 N 
HETATM   13  H   UNL     1       5.085  -7.377  -1.286  1.00  0.00     0.280 HD
HETATM   14  C   UNL     1       6.620  -5.988  -1.297  1.00  0.00     0.235 C 
HETATM   15  C   UNL     1       5.791  -4.729  -1.128  1.00  0.00     0.036 C 
BRANCH  12  16
HETATM   16  C   UNL     1       6.827  -8.413  -0.901  1.00  0.00     0.273 C 
BRANCH  16  17
HETATM   17  C   UNL     1       6.408  -9.677  -0.196  1.00  0.00    -0.027 A 
HETATM   18  C   UNL     1       7.240 -10.304   0.760  1.00  0.00    -0.054 A 
HETATM   19  C   UNL     1       6.805 -11.486   1.382  1.00  0.00     0.014 A 
HETATM   20  C   UNL     1       8.597  -9.764   1.136  1.00  0.00     0.049 C 
HETATM   21  C   UNL     1       5.573 -12.065   1.063  1.00  0.00    -0.061 A 
HETATM   22  C   UNL     1       5.131 -13.318   1.763  1.00  0.00     0.048 C 
HETATM   23  C   UNL     1       4.756 -11.443   0.119  1.00  0.00     0.007 A 
HETATM   24  C   UNL     1       5.172 -10.269  -0.513  1.00  0.00     0.010 A 
ENDBRANCH  16  17
ENDBRANCH  12  16
ENDBRANCH   1   9
BRANCH   1  25
HETATM   25  C   UNL     1       7.020  -2.494   0.951  1.00  0.00     0.072 A 
HETATM   26  N   UNL     1       6.701  -1.966  -0.256  1.00  0.00    -0.262 NA
HETATM   27  C   UNL     1       7.221  -0.759  -0.584  1.00  0.00     0.117 A 
HETATM   28  C   UNL     1       8.083  -0.047   0.227  1.00  0.00     0.019 A 
HETATM   29  C   UNL     1       8.429  -0.598   1.451  1.00  0.00     0.003 A 
HETATM   30  C   UNL     1       7.896  -1.831   1.820  1.00  0.00     0.030 A 
ENDBRANCH   1  25
BRANCH   5  31
HETATM   31  C   UNL     1       6.197  -5.116   4.870  1.00  0.00     0.168 C 
BRANCH  31  32
HETATM   32  C   UNL     1       4.741  -5.563   5.040  1.00  0.00     0.140 C 
HETATM   33  O   UNL     1       4.433  -6.675   4.168  1.00  0.00    -0.384 OA
HETATM   34  C   UNL     1       3.406  -7.456   4.813  1.00  0.00     0.168 C 
HETATM   35  C   UNL     1       3.148  -6.839   6.175  1.00  0.00     0.029 C 
HETATM   36  C   UNL     1       4.416  -6.064   6.435  1.00  0.00     0.036 C 
ENDBRANCH  31  32
ENDBRANCH   5  31
TORSDOF 6
