REMARK  9 active torsions:
REMARK  status: ('A' for Active; 'I' for Inactive)
REMARK    1  A    between atoms: C_2  and  C_3 
REMARK    2  A    between atoms: C_3  and  C_4 
REMARK    3  A    between atoms: C_4  and  N_5 
REMARK       I    between atoms: N_5  and  C_6 
REMARK    4  A    between atoms: C_6  and  C_7 
REMARK    5  A    between atoms: C_14  and  S_15 
REMARK    6  A    between atoms: S_15  and  N_16 
REMARK    7  A    between atoms: N_16  and  C_17 
REMARK    8  A    between atoms: C_20  and  O_21 
REMARK    9  A    between atoms: O_21  and  C_22 
ROOT
HETATM    1  C   UNL     1       7.455  -1.969  -0.667  1.00  0.00     0.098 A 
HETATM    2  C   UNL     1       7.003  -0.549  -0.713  1.00  0.00     0.201 A 
HETATM    3  O   UNL     1       5.850  -0.248  -1.014  1.00  0.00    -0.286 OA
HETATM    4  C   UNL     1       7.993   0.513  -0.388  1.00  0.00     0.043 A 
HETATM    5  C   UNL     1       9.305   0.135  -0.046  1.00  0.00     0.046 A 
HETATM    6  N   UNL     1       9.661  -1.218  -0.045  1.00  0.00    -0.364 N 
HETATM    7  C   UNL     1       7.623   1.860  -0.438  1.00  0.00     0.043 A 
HETATM    8  C   UNL     1       8.590   2.837  -0.192  1.00  0.00     0.081 A 
HETATM    9  C   UNL     1       9.899   2.477   0.151  1.00  0.00     0.027 A 
HETATM   10  C   UNL     1      10.253   1.127   0.219  1.00  0.00     0.032 A 
HETATM   11  C   UNL     1       8.736  -2.189  -0.326  1.00  0.00     0.109 A 
HETATM   12  H   UNL     1      10.558  -1.500   0.338  1.00  0.00     0.165 HD
ENDROOT
BRANCH   8  13
HETATM   13  S   UNL     1       8.149   4.561  -0.282  1.00  0.00     0.263 S 
HETATM   14  O   UNL     1       6.766   4.685   0.122  1.00  0.00    -0.200 OA
HETATM   15  O   UNL     1       9.196   5.306   0.385  1.00  0.00    -0.200 OA
BRANCH  13  16
HETATM   16  N   UNL     1       8.309   4.909  -1.927  1.00  0.00    -0.281 N 
HETATM   17  H   UNL     1       9.260   5.169  -2.181  1.00  0.00     0.179 HD
BRANCH  16  18
HETATM   18  C   UNL     1       7.534   4.186  -2.873  1.00  0.00     0.042 A 
HETATM   19  C   UNL     1       6.152   4.343  -2.922  1.00  0.00     0.033 A 
HETATM   20  C   UNL     1       5.399   3.586  -3.821  1.00  0.00     0.039 A 
HETATM   21  C   UNL     1       6.017   2.661  -4.667  1.00  0.00     0.068 A 
HETATM   22  C   UNL     1       7.403   2.508  -4.615  1.00  0.00     0.039 A 
HETATM   23  C   UNL     1       8.162   3.272  -3.720  1.00  0.00     0.033 A 
BRANCH  21  24
HETATM   24  O   UNL     1       5.161   1.986  -5.490  1.00  0.00    -0.352 OA
BRANCH  24  25
HETATM   25  C   UNL     1       5.711   0.940  -6.289  1.00  0.00     0.171 C 
HETATM   26  C   UNL     1       4.575   0.300  -7.066  1.00  0.00     0.034 C 
ENDBRANCH  24  25
ENDBRANCH  21  24
ENDBRANCH  16  18
ENDBRANCH  13  16
ENDBRANCH   8  13
BRANCH   1  27
HETATM   27  C   UNL     1       6.591  -3.145  -0.974  1.00  0.00     0.257 C 
HETATM   28  N   UNL     1       5.314  -2.844  -1.370  1.00  0.00    -0.357 N 
HETATM   29  H   UNL     1       5.025  -1.864  -1.372  1.00  0.00     0.162 HD
HETATM   30  O   UNL     1       7.012  -4.295  -0.880  1.00  0.00    -0.267 OA
BRANCH  28  31
HETATM   31  C   UNL     1       4.322  -3.857  -1.656  1.00  0.00     0.123 C 
BRANCH  31  32
HETATM   32  C   UNL     1       3.652  -4.398  -0.393  1.00  0.00     0.019 C 
BRANCH  32  33
HETATM   33  C   UNL     1       2.839  -3.331   0.343  1.00  0.00    -0.003 C 
HETATM   34  C   UNL     1       2.136  -3.911   1.559  1.00  0.00     0.005 C 
ENDBRANCH  32  33
ENDBRANCH  31  32
ENDBRANCH  28  31
ENDBRANCH   1  27
TORSDOF 9
