REMARK  5 active torsions:
REMARK  status: ('A' for Active; 'I' for Inactive)
REMARK    1  A    between atoms: C_5  and  N_6 
REMARK    2  A    between atoms: C_9  and  C_10 
REMARK    3  A    between atoms: C_10  and  N_11 
REMARK       I    between atoms: N_11  and  C_12 
REMARK       I    between atoms: C_12  and  N_13 
REMARK    4  A    between atoms: N_13  and  C_14 
REMARK    5  A    between atoms: C_14  and  C_15 
ROOT
HETATM    1  N   UNL     1       6.596   0.031  -0.597  1.00  0.00    -0.319 N 
HETATM    2  C   UNL     1       7.398   1.169  -0.713  1.00  0.00     0.021 A 
HETATM    3  C   UNL     1       6.922   2.556  -0.422  1.00  0.00     0.069 C 
HETATM    4  C   UNL     1       8.687   0.772  -1.048  1.00  0.00    -0.016 A 
HETATM    5  C   UNL     1       8.679  -0.643  -1.089  1.00  0.00     0.035 A 
HETATM    6  C   UNL     1       7.404  -1.084  -0.804  1.00  0.00     0.014 A 
HETATM    7  C   UNL     1       6.924  -2.496  -0.822  1.00  0.00     0.068 C 
ENDROOT
BRANCH   4   8
HETATM    8  C   UNL     1       9.892   1.628  -1.270  1.00  0.00     0.165 C 
BRANCH   8   9
HETATM    9  N   UNL     1      10.607   1.706  -0.018  1.00  0.00    -0.339 N 
HETATM   10  C   UNL     1      11.940   2.008  -0.007  1.00  0.00     0.316 C 
HETATM   11  N   UNL     1      12.472   1.816   1.238  1.00  0.00    -0.339 N 
HETATM   12  O   UNL     1      12.580   2.361  -0.986  1.00  0.00    -0.247 OA
HETATM   13  H   UNL     1      11.847   1.977   2.013  1.00  0.00     0.164 HD
HETATM   14  H   UNL     1      10.298   1.084   0.714  1.00  0.00     0.164 HD
BRANCH  11  15
HETATM   15  C   UNL     1      13.879   2.027   1.482  1.00  0.00     0.162 C 
BRANCH  15  16
HETATM   16  C   UNL     1      14.289   1.368   2.774  1.00  0.00    -0.040 A 
HETATM   17  C   UNL     1      14.179  -0.024   2.919  1.00  0.00     0.009 A 
HETATM   18  C   UNL     1      14.540  -0.645   4.115  1.00  0.00     0.001 A 
HETATM   19  C   UNL     1      15.021   0.118   5.177  1.00  0.00     0.000 A 
HETATM   20  C   UNL     1      15.141   1.501   5.042  1.00  0.00     0.001 A 
HETATM   21  C   UNL     1      14.777   2.124   3.847  1.00  0.00     0.009 A 
ENDBRANCH  15  16
ENDBRANCH  11  15
ENDBRANCH   8   9
ENDBRANCH   4   8
BRANCH   1  22
HETATM   22  C   UNL     1       5.196   0.014  -0.330  1.00  0.00     0.039 A 
HETATM   23  C   UNL     1       4.343   0.885  -1.017  1.00  0.00     0.030 A 
HETATM   24  C   UNL     1       2.967   0.854  -0.775  1.00  0.00     0.009 A 
HETATM   25  C   UNL     1       2.430  -0.032   0.166  1.00  0.00    -0.062 A 
HETATM   26  C   UNL     1       0.949  -0.093   0.395  1.00  0.00     0.048 C 
HETATM   27  C   UNL     1       3.287  -0.905   0.846  1.00  0.00     0.009 A 
HETATM   28  C   UNL     1       4.664  -0.882   0.603  1.00  0.00     0.030 A 
ENDBRANCH   1  22
TORSDOF 5
