REMARK  8 active torsions:
REMARK  status: ('A' for Active; 'I' for Inactive)
REMARK    1  A    between atoms: C_8  and  C_9 
REMARK       I    between atoms: C_9  and  N_10 
REMARK    2  A    between atoms: N_10  and  N_11 
REMARK    3  A    between atoms: N_11  and  C_12 
REMARK    4  A    between atoms: C_12  and  N_13 
REMARK    5  A    between atoms: N_13  and  C_14 
REMARK    6  A    between atoms: C_15  and  O_16 
REMARK    7  A    between atoms: C_19  and  O_20 
REMARK    8  A    between atoms: C_26  and  C_27 
ROOT
HETATM    1  C   UNL     1       5.056  -3.322   0.518  1.00  0.00     0.275 C 
HETATM    2  N   UNL     1       3.935  -4.125   0.610  1.00  0.00    -0.263 N 
HETATM    3  O   UNL     1       4.987  -2.104   0.365  1.00  0.00    -0.266 OA
HETATM    4  H   UNL     1       4.040  -5.113   0.382  1.00  0.00     0.190 HD
ENDROOT
BRANCH   2   5
HETATM    5  N   UNL     1       2.676  -3.565   0.317  1.00  0.00    -0.273 N 
HETATM    6  H   UNL     1       2.691  -2.554   0.170  1.00  0.00     0.189 HD
BRANCH   5   7
HETATM    7  C   UNL     1       1.723  -4.323  -0.366  1.00  0.00     0.191 C 
HETATM    8  S   UNL     1       1.920  -5.968  -0.647  1.00  0.00    -0.039 SA
BRANCH   7   9
HETATM    9  N   UNL     1       0.617  -3.545  -0.663  1.00  0.00    -0.330 N 
HETATM   10  H   UNL     1       0.434  -2.797   0.000  1.00  0.00     0.168 HD
BRANCH   9  11
HETATM   11  C   UNL     1      -0.477  -3.782  -1.529  1.00  0.00     0.068 A 
HETATM   12  C   UNL     1      -1.675  -3.086  -1.259  1.00  0.00     0.097 A 
HETATM   13  C   UNL     1      -2.792  -3.264  -2.086  1.00  0.00     0.075 A 
HETATM   14  C   UNL     1      -2.720  -4.120  -3.187  1.00  0.00     0.070 A 
HETATM   15  C   UNL     1      -1.521  -4.773  -3.472  1.00  0.00     0.039 A 
HETATM   16  C   UNL     1      -0.403  -4.603  -2.653  1.00  0.00     0.035 A 
BRANCH  12  17
HETATM   17  O   UNL     1      -1.636  -2.262  -0.156  1.00  0.00    -0.354 OA
HETATM   18  C   UNL     1      -2.861  -1.662   0.250  1.00  0.00     0.210 C 
ENDBRANCH  12  17
BRANCH  14  19
HETATM   19  O   UNL     1      -3.731  -4.385  -4.070  1.00  0.00    -0.356 OA
HETATM   20  C   UNL     1      -5.026  -3.905  -3.732  1.00  0.00     0.210 C 
ENDBRANCH  14  19
ENDBRANCH   9  11
ENDBRANCH   7   9
ENDBRANCH   5   7
ENDBRANCH   2   5
BRANCH   1  21
HETATM   21  C   UNL     1       6.311  -4.045   0.550  1.00  0.00     0.098 A 
HETATM   22  C   UNL     1       6.574  -5.336   0.972  1.00  0.00     0.138 A 
HETATM   23  N   UNL     1       5.817  -6.317   1.522  1.00  0.00    -0.370 N 
HETATM   24  N   UNL     1       7.920  -5.535   0.763  1.00  0.00    -0.240 N 
HETATM   25  C   UNL     1       6.313  -7.689   1.569  1.00  0.00     0.081 C 
HETATM   26  H   UNL     1       4.867  -6.165   1.861  1.00  0.00     0.161 HD
HETATM   27  C   UNL     1       5.476  -8.503   2.549  1.00  0.00     0.032 C 
HETATM   28  C   UNL     1       7.786  -7.669   1.982  1.00  0.00     0.061 C 
HETATM   29  C   UNL     1       8.611  -6.788   1.022  1.00  0.00     0.221 C 
HETATM   30  N   UNL     1       8.534  -4.490   0.187  1.00  0.00    -0.181 NA
HETATM   31  C   UNL     1       7.568  -3.571   0.105  1.00  0.00     0.160 A 
BRANCH  29  32
HETATM   32  C   UNL     1       9.996  -6.575   1.595  1.00  0.00     0.409 C 
HETATM   33  F   UNL     1       9.978  -5.872   2.750  1.00  0.00    -0.169 F 
HETATM   34  F   UNL     1      10.551  -7.784   1.891  1.00  0.00    -0.169 F 
HETATM   35  F   UNL     1      10.851  -5.976   0.741  1.00  0.00    -0.169 F 
ENDBRANCH  29  32
ENDBRANCH   1  21
TORSDOF 8
