REMARK  8 active torsions:
REMARK  status: ('A' for Active; 'I' for Inactive)
REMARK    1  A    between atoms: C_2  and  N_3 
REMARK    2  A    between atoms: N_7  and  C_8 
REMARK    3  A    between atoms: C_11  and  N_12 
REMARK       I    between atoms: N_12  and  C_13 
REMARK    4  A    between atoms: C_13  and  C_14 
REMARK    5  A    between atoms: C_17  and  N_18 
REMARK       I    between atoms: N_18  and  C_19 
REMARK    6  A    between atoms: C_19  and  C_20 
REMARK    7  A    between atoms: C_20  and  S_21 
REMARK    8  A    between atoms: S_21  and  C_22 
ROOT
HETATM    1  N   UNL     1       3.140  -7.963   4.641  1.00  0.00    -0.323 N 
HETATM    2  C   UNL     1       2.201  -8.180   5.633  1.00  0.00     0.256 C 
HETATM    3  O   UNL     1       1.244  -7.470   5.909  1.00  0.00    -0.267 OA
HETATM    4  H   UNL     1       3.765  -8.733   4.435  1.00  0.00     0.169 HD
ENDROOT
BRANCH   2   5
HETATM    5  C   UNL     1       2.385  -9.468   6.357  1.00  0.00     0.032 A 
HETATM    6  C   UNL     1       3.661  -9.912   6.719  1.00  0.00     0.019 A 
HETATM    7  C   UNL     1       3.824 -11.169   7.308  1.00  0.00     0.030 A 
HETATM    8  C   UNL     1       2.721 -11.993   7.545  1.00  0.00     0.034 A 
HETATM    9  C   UNL     1       1.440 -11.513   7.239  1.00  0.00     0.030 A 
HETATM   10  C   UNL     1       1.269 -10.255   6.650  1.00  0.00     0.019 A 
BRANCH   8  11
HETATM   11  N   UNL     1       2.819 -13.304   8.051  1.00  0.00    -0.327 N 
HETATM   12  C   UNL     1       3.978 -14.038   8.267  1.00  0.00     0.231 C 
HETATM   13  O   UNL     1       5.127 -13.619   8.151  1.00  0.00    -0.272 OA
HETATM   14  H   UNL     1       1.949 -13.816   8.151  1.00  0.00     0.169 HD
BRANCH  12  15
HETATM   15  C   UNL     1       3.713 -15.473   8.695  1.00  0.00     0.185 C 
BRANCH  15  16
HETATM   16  S   UNL     1       2.798 -16.344   7.381  1.00  0.00    -0.083 SA
BRANCH  16  17
HETATM   17  C   UNL     1       2.907 -17.968   7.965  1.00  0.00     0.168 A 
HETATM   18  N   UNL     1       2.514 -19.055   7.229  1.00  0.00    -0.339 N 
HETATM   19  C   UNL     1       1.942 -19.060   5.905  1.00  0.00     0.158 C 
HETATM   20  C   UNL     1       2.769 -20.169   7.985  1.00  0.00     0.112 A 
HETATM   21  C   UNL     1       3.302 -19.690   9.160  1.00  0.00     0.136 A 
HETATM   22  N   UNL     1       3.375 -18.321   9.139  1.00  0.00    -0.235 NA
ENDBRANCH  16  17
ENDBRANCH  15  16
ENDBRANCH  12  15
ENDBRANCH   8  11
ENDBRANCH   2   5
BRANCH   1  23
HETATM   23  C   UNL     1       3.274  -6.829   3.819  1.00  0.00     0.035 A 
HETATM   24  C   UNL     1       2.556  -5.651   3.991  1.00  0.00     0.032 A 
HETATM   25  C   UNL     1       2.768  -4.554   3.140  1.00  0.00     0.031 A 
HETATM   26  C   UNL     1       3.682  -4.606   2.079  1.00  0.00     0.030 A 
HETATM   27  C   UNL     1       4.406  -5.800   1.936  1.00  0.00     0.031 A 
HETATM   28  C   UNL     1       4.211  -6.893   2.789  1.00  0.00     0.032 A 
BRANCH  26  29
HETATM   29  N   UNL     1       3.924  -3.540   1.213  1.00  0.00    -0.378 N 
HETATM   30  C   UNL     1       3.552  -2.167   1.590  1.00  0.00     0.150 C 
HETATM   31  C   UNL     1       2.163  -1.781   1.042  1.00  0.00     0.254 C 
HETATM   32  N   UNL     1       2.092  -2.023  -0.474  1.00  0.00    -0.068 N 
HETATM   33  H   UNL     1       2.822  -1.435  -0.897  1.00  0.00     0.280 HD
HETATM   34  C   UNL     1       2.448  -3.483  -0.787  1.00  0.00     0.254 C 
HETATM   35  C   UNL     1       3.848  -3.827  -0.234  1.00  0.00     0.150 C 
BRANCH  32  36
HETATM   36  C   UNL     1       0.758  -1.593  -1.032  1.00  0.00     0.230 C 
HETATM   37  C   UNL     1       0.822  -1.460  -2.542  1.00  0.00     0.034 C 
ENDBRANCH  32  36
ENDBRANCH  26  29
ENDBRANCH   1  23
TORSDOF 8
