REMARK  4 active torsions:
REMARK  status: ('A' for Active; 'I' for Inactive)
REMARK    1  A    between atoms: C_2  and  N_3 
REMARK       I    between atoms: N_3  and  C_4 
REMARK       I    between atoms: C_4  and  N_5 
REMARK    2  A    between atoms: N_5  and  C_6 
REMARK    3  A    between atoms: C_17  and  C_18 
REMARK    4  A    between atoms: C_19  and  O_20 
ROOT
HETATM    1  C   UNL     1       1.213  -1.898   0.960  1.00  0.00     0.120 C 
HETATM    2  C   UNL     1       1.819  -0.571   0.456  1.00  0.00     0.202 C 
HETATM    3  N   UNL     1       0.753   0.402   0.611  1.00  0.00    -0.332 N 
HETATM    4  C   UNL     1       0.907   1.761   0.562  1.00  0.00     0.257 C 
HETATM    5  O   UNL     1      -0.012   2.540   0.797  1.00  0.00    -0.267 OA
HETATM    6  C   UNL     1       2.245   2.300   0.220  1.00  0.00     0.059 A 
HETATM    7  C   UNL     1       3.061   1.777  -0.797  1.00  0.00     0.050 A 
HETATM    8  N   UNL     1       2.831   0.572  -1.494  1.00  0.00    -0.324 N 
HETATM    9  C   UNL     1       2.229  -0.572  -1.017  1.00  0.00     0.247 C 
HETATM   10  O   UNL     1       2.162  -1.564  -1.742  1.00  0.00    -0.271 OA
HETATM   11  C   UNL     1       2.617   3.479   0.888  1.00  0.00     0.031 A 
HETATM   12  C   UNL     1       3.799   4.160   0.567  1.00  0.00    -0.022 A 
HETATM   13  C   UNL     1       4.571   3.663  -0.491  1.00  0.00     0.014 A 
HETATM   14  C   UNL     1       4.201   2.498  -1.173  1.00  0.00     0.031 A 
HETATM   15  C   UNL     1      -0.537  -0.237   0.739  1.00  0.00     0.129 C 
HETATM   16  C   UNL     1      -0.229  -1.571   1.387  1.00  0.00     0.048 C 
HETATM   17  H   UNL     1       3.304   0.427  -2.378  1.00  0.00     0.169 HD
ENDROOT
BRANCH   1  18
HETATM   18  N   UNL     1       1.962  -2.529   2.055  1.00  0.00    -0.336 N 
HETATM   19  C   UNL     1       2.483  -2.020   3.202  1.00  0.00     0.316 C 
HETATM   20  N   UNL     1       2.261  -0.697   3.434  1.00  0.00    -0.339 N 
HETATM   21  O   UNL     1       3.160  -2.746   3.920  1.00  0.00    -0.247 OA
HETATM   22  H   UNL     1       1.420  -0.305   3.042  1.00  0.00     0.164 HD
HETATM   23  H   UNL     1       2.190  -3.511   1.950  1.00  0.00     0.164 HD
BRANCH  20  24
HETATM   24  C   UNL     1       2.846   0.054   4.539  1.00  0.00     0.078 C 
HETATM   25  C   UNL     1       4.374   0.043   4.508  1.00  0.00     0.032 C 
HETATM   26  C   UNL     1       2.305  -0.392   5.893  1.00  0.00     0.032 C 
ENDBRANCH  20  24
ENDBRANCH   1  18
BRANCH  12  27
HETATM   27  C   UNL     1       4.200   5.361   1.326  1.00  0.00     0.009 A 
HETATM   28  C   UNL     1       5.420   5.427   2.042  1.00  0.00     0.079 A 
HETATM   29  C   UNL     1       5.735   6.576   2.779  1.00  0.00     0.039 A 
HETATM   30  C   UNL     1       4.855   7.661   2.813  1.00  0.00     0.026 A 
HETATM   31  C   UNL     1       3.658   7.603   2.109  1.00  0.00     0.035 A 
HETATM   32 CL   UNL     1       2.574   8.937   2.156  1.00  0.00    -0.084 Cl
HETATM   33  C   UNL     1       3.330   6.468   1.371  1.00  0.00     0.039 A 
BRANCH  28  34
HETATM   34  O   UNL     1       6.220   4.313   1.981  1.00  0.00    -0.355 OA
HETATM   35  C   UNL     1       7.477   4.359   2.643  1.00  0.00     0.210 C 
ENDBRANCH  28  34
ENDBRANCH  12  27
TORSDOF 4
