REMARK  6 active torsions:
REMARK  status: ('A' for Active; 'I' for Inactive)
REMARK    1  A    between atoms: C_8  and  N_9 
REMARK       I    between atoms: N_9  and  C_10 
REMARK    2  A    between atoms: C_10  and  C_11 
REMARK    3  A    between atoms: C_11  and  N_12 
REMARK    4  A    between atoms: N_12  and  C_15 
REMARK    5  A    between atoms: C_15  and  C_16 
REMARK    6  A    between atoms: C_15  and  C_22 
ROOT
HETATM    1  N   UNL     1       0.500  -0.598  -0.374  1.00  0.00    -0.055 N 
HETATM    2  H   UNL     1       1.264  -0.515   0.298  1.00  0.00     0.278 HD
HETATM    3  H   UNL     1       0.879  -0.427  -1.318  1.00  0.00     0.278 HD
ENDROOT
BRANCH   1   4
HETATM    4  C   UNL     1      -0.042  -2.007  -0.370  1.00  0.00     0.336 C 
BRANCH   4   5
HETATM    5  C   UNL     1      -0.909  -2.282  -1.598  1.00  0.00     0.248 C 
HETATM    6  N   UNL     1      -1.715  -3.389  -1.474  1.00  0.00    -0.322 N 
HETATM    7  H   UNL     1      -1.689  -3.933  -0.619  1.00  0.00     0.169 HD
HETATM    8  O   UNL     1      -0.816  -1.513  -2.550  1.00  0.00    -0.271 OA
BRANCH   6   9
HETATM    9  C   UNL     1      -2.605  -3.877  -2.421  1.00  0.00     0.085 A 
HETATM   10  C   UNL     1      -3.380  -4.996  -2.165  1.00  0.00     0.052 A 
HETATM   11  C   UNL     1      -3.498  -5.899  -0.994  1.00  0.00     0.072 C 
HETATM   12  N   UNL     1      -4.129  -5.200  -3.290  1.00  0.00    -0.280 N 
HETATM   13  H   UNL     1      -4.811  -5.931  -3.472  1.00  0.00     0.189 HD
HETATM   14  N   UNL     1      -3.906  -4.301  -4.249  1.00  0.00    -0.177 NA
HETATM   15  C   UNL     1      -2.970  -3.486  -3.744  1.00  0.00     0.079 A 
HETATM   16  C   UNL     1      -2.493  -2.376  -4.606  1.00  0.00     0.075 C 
ENDBRANCH   6   9
ENDBRANCH   4   5
ENDBRANCH   1   4
BRANCH   1  17
HETATM   17  C   UNL     1      -0.497   0.506  -0.138  1.00  0.00     0.252 C 
BRANCH  17  18
HETATM   18  C   UNL     1      -1.161   0.374   1.222  1.00  0.00    -0.023 A 
HETATM   19  C   UNL     1      -0.449   0.573   2.417  1.00  0.00     0.009 A 
HETATM   20  C   UNL     1      -1.076   0.405   3.653  1.00  0.00     0.001 A 
HETATM   21  C   UNL     1      -2.417   0.033   3.713  1.00  0.00     0.000 A 
HETATM   22  C   UNL     1      -3.138  -0.164   2.538  1.00  0.00     0.001 A 
HETATM   23  C   UNL     1      -2.517   0.006   1.300  1.00  0.00     0.009 A 
ENDBRANCH  17  18
BRANCH  17  24
HETATM   24  C   UNL     1       0.097   1.889  -0.386  1.00  0.00    -0.023 A 
HETATM   25  C   UNL     1      -0.745   2.910  -0.865  1.00  0.00     0.009 A 
HETATM   26  C   UNL     1      -0.254   4.196  -1.098  1.00  0.00     0.001 A 
HETATM   27  C   UNL     1       1.084   4.486  -0.853  1.00  0.00     0.000 A 
HETATM   28  C   UNL     1       1.931   3.494  -0.368  1.00  0.00     0.001 A 
HETATM   29  C   UNL     1       1.444   2.205  -0.131  1.00  0.00     0.009 A 
ENDBRANCH  17  24
ENDBRANCH   1  17
TORSDOF 6
