REMARK  10 active torsions:
REMARK  status: ('A' for Active; 'I' for Inactive)
REMARK    1  A    between atoms: C_2  and  C_3 
REMARK    2  A    between atoms: C_3  and  C_4 
REMARK    3  A    between atoms: C_4  and  O_5 
REMARK    4  A    between atoms: O_5  and  C_6 
REMARK    5  A    between atoms: C_9  and  C_10 
REMARK       I    between atoms: C_10  and  N_11 
REMARK    6  A    between atoms: N_11  and  C_12 
REMARK    7  A    between atoms: C_12  and  N_13 
REMARK    8  A    between atoms: N_13  and  C_14 
REMARK    9  A    between atoms: C_16  and  C_17 
REMARK   10  A    between atoms: C_26  and  O_27 
ROOT
HETATM    1  N   UNL     1      11.039   6.619  -0.103  1.00  0.00    -0.337 N 
HETATM    2  H   UNL     1      11.749   7.336   0.011  1.00  0.00     0.168 HD
ENDROOT
BRANCH   1   3
HETATM    3  C   UNL     1      10.883   5.790   0.990  1.00  0.00     0.157 C 
HETATM    4  S   UNL     1      11.537   6.260   2.452  1.00  0.00    -0.047 SA
BRANCH   3   5
HETATM    5  N   UNL     1      10.266   4.582   0.713  1.00  0.00    -0.201 NA
HETATM    6  C   UNL     1      10.043   3.529   1.581  1.00  0.00     0.237 C 
HETATM    7  O   UNL     1      10.780   2.550   1.607  1.00  0.00    -0.274 OA
HETATM    8  H   UNL     1      10.754   4.206  -0.093  1.00  0.00     0.139 HD
BRANCH   6   9
HETATM    9  C   UNL     1       8.688   3.487   2.188  1.00  0.00     0.026 A 
HETATM   10  C   UNL     1       8.084   4.603   2.776  1.00  0.00     0.019 A 
HETATM   11  C   UNL     1       6.763   4.521   3.223  1.00  0.00     0.038 A 
HETATM   12  C   UNL     1       6.044   3.341   3.045  1.00  0.00     0.068 A 
HETATM   13  C   UNL     1       6.646   2.212   2.495  1.00  0.00     0.038 A 
HETATM   14  C   UNL     1       7.972   2.285   2.069  1.00  0.00     0.019 A 
BRANCH  12  15
HETATM   15  O   UNL     1       4.739   3.306   3.450  1.00  0.00    -0.351 OA
BRANCH  15  16
HETATM   16  C   UNL     1       3.850   3.378   2.325  1.00  0.00     0.175 C 
BRANCH  16  17
HETATM   17  C   UNL     1       2.890   4.542   2.550  1.00  0.00     0.026 C 
BRANCH  17  18
HETATM   18  C   UNL     1       1.941   4.730   1.370  1.00  0.00    -0.002 C 
HETATM   19  C   UNL     1       1.001   5.903   1.594  1.00  0.00     0.005 C 
ENDBRANCH  17  18
ENDBRANCH  16  17
ENDBRANCH  15  16
ENDBRANCH  12  15
ENDBRANCH   6   9
ENDBRANCH   3   5
ENDBRANCH   1   3
BRANCH   1  20
HETATM   20  C   UNL     1      10.330   6.606  -1.326  1.00  0.00     0.035 A 
HETATM   21  C   UNL     1      10.932   7.188  -2.450  1.00  0.00     0.048 A 
HETATM   22  C   UNL     1      10.296   7.158  -3.705  1.00  0.00     0.052 A 
HETATM   23  C   UNL     1       9.020   6.574  -3.793  1.00  0.00     0.080 A 
HETATM   24  C   UNL     1       8.393   6.047  -2.671  1.00  0.00     0.040 A 
HETATM   25  C   UNL     1       9.046   6.064  -1.442  1.00  0.00     0.032 A 
BRANCH  22  26
HETATM   26  C   UNL     1      10.935   7.684  -4.908  1.00  0.00     0.183 A 
HETATM   27  O   UNL     1      12.145   8.313  -4.770  1.00  0.00    -0.289 OA
HETATM   28  C   UNL     1      12.474   8.665  -6.048  1.00  0.00     0.106 A 
HETATM   29  C   UNL     1      11.459   8.231  -6.885  1.00  0.00     0.093 A 
HETATM   30  C   UNL     1      13.615   9.334  -6.476  1.00  0.00     0.040 A 
HETATM   31  N   UNL     1      10.480   7.616  -6.149  1.00  0.00    -0.221 NA
HETATM   32  C   UNL     1      11.562   8.462  -8.262  1.00  0.00     0.034 A 
HETATM   33  C   UNL     1      12.700   9.133  -8.734  1.00  0.00     0.002 A 
HETATM   34  C   UNL     1      13.704   9.561  -7.856  1.00  0.00     0.003 A 
ENDBRANCH  22  26
BRANCH  23  35
HETATM   35  O   UNL     1       8.313   6.485  -4.965  1.00  0.00    -0.360 OA
HETATM   36  H   UNL     1       8.866   6.843  -5.693  1.00  0.00     0.217 HD
ENDBRANCH  23  35
ENDBRANCH   1  20
TORSDOF 10
