REMARK  7 active torsions:
REMARK  status: ('A' for Active; 'I' for Inactive)
REMARK    1  A    between atoms: C_2  and  N_3 
REMARK    2  A    between atoms: N_3  and  N_4 
REMARK       I    between atoms: N_4  and  C_5 
REMARK    3  A    between atoms: C_5  and  C_6 
REMARK    4  A    between atoms: C_6  and  C_7 
REMARK    5  A    between atoms: C_7  and  C_8 
REMARK    6  A    between atoms: C_8  and  N_9 
REMARK       I    between atoms: N_9  and  C_10 
REMARK       I    between atoms: C_10  and  N_11 
REMARK    7  A    between atoms: N_11  and  C_12 
ROOT
HETATM    1  C   UNL     1      -1.134   1.132   0.769  1.00  0.00     0.068 A 
HETATM    2  C   UNL     1      -1.455   2.456   0.489  1.00  0.00     0.124 A 
HETATM    3  N   UNL     1      -2.493   2.782  -0.302  1.00  0.00    -0.223 NA
HETATM    4  C   UNL     1      -3.208   1.779  -0.846  1.00  0.00     0.129 A 
HETATM    5 CL   UNL     1      -4.510   2.286  -1.839  1.00  0.00    -0.062 Cl
HETATM    6  C   UNL     1      -2.957   0.439  -0.644  1.00  0.00     0.067 A 
HETATM    7  C   UNL     1      -1.892   0.115   0.187  1.00  0.00     0.051 A 
HETATM    8  C   UNL     1      -1.575  -1.256   0.450  1.00  0.00     0.099 C 
HETATM    9  N   UNL     1      -1.320  -2.367   0.659  1.00  0.00    -0.191 NA
ENDROOT
BRANCH   2  10
HETATM   10  N   UNL     1      -0.759   3.528   1.087  1.00  0.00    -0.186 NA
HETATM   11  H   UNL     1      -1.084   4.371   0.590  1.00  0.00     0.154 HD
BRANCH  10  12
HETATM   12  N   UNL     1       0.649   3.396   1.032  1.00  0.00    -0.286 N 
HETATM   13  C   UNL     1       1.317   4.350   0.281  1.00  0.00     0.232 C 
HETATM   14  O   UNL     1       0.750   5.131  -0.479  1.00  0.00    -0.272 OA
HETATM   15  H   UNL     1       1.076   3.060   1.892  1.00  0.00     0.184 HD
BRANCH  13  16
HETATM   16  C   UNL     1       2.812   4.385   0.509  1.00  0.00     0.106 C 
BRANCH  16  17
HETATM   17  C   UNL     1       3.485   3.066   0.143  1.00  0.00     0.029 C 
BRANCH  17  18
HETATM   18  C   UNL     1       5.004   3.188   0.229  1.00  0.00     0.125 C 
BRANCH  18  19
HETATM   19  N   UNL     1       5.661   1.936  -0.083  1.00  0.00    -0.343 N 
HETATM   20  C   UNL     1       5.803   0.951   0.864  1.00  0.00     0.316 C 
HETATM   21  N   UNL     1       6.430  -0.146   0.331  1.00  0.00    -0.339 N 
HETATM   22  O   UNL     1       5.419   1.059   2.019  1.00  0.00    -0.248 OA
HETATM   23  H   UNL     1       7.010   0.059  -0.468  1.00  0.00     0.164 HD
HETATM   24  H   UNL     1       5.661   1.633  -1.045  1.00  0.00     0.164 HD
BRANCH  21  25
HETATM   25  C   UNL     1       6.820  -1.319   1.104  1.00  0.00     0.086 C 
HETATM   26  C   UNL     1       5.637  -2.035   1.768  1.00  0.00     0.025 C 
HETATM   27  C   UNL     1       6.096  -3.294   2.502  1.00  0.00     0.002 C 
HETATM   28  C   UNL     1       7.206  -2.991   3.506  1.00  0.00     0.000 C 
HETATM   29  C   UNL     1       8.380  -2.267   2.851  1.00  0.00     0.002 C 
HETATM   30  C   UNL     1       7.927  -1.005   2.119  1.00  0.00     0.025 C 
ENDBRANCH  21  25
ENDBRANCH  18  19
ENDBRANCH  17  18
ENDBRANCH  16  17
ENDBRANCH  13  16
ENDBRANCH  10  12
ENDBRANCH   2  10
TORSDOF 7
