REMARK  8 active torsions:
REMARK  status: ('A' for Active; 'I' for Inactive)
REMARK    1  A    between atoms: C_2  and  C_3 
REMARK    2  A    between atoms: C_3  and  N_4 
REMARK    3  A    between atoms: C_7  and  C_8 
REMARK       I    between atoms: C_8  and  N_9 
REMARK    4  A    between atoms: N_9  and  C_10 
REMARK    5  A    between atoms: C_13  and  O_14 
REMARK    6  A    between atoms: O_14  and  C_15 
REMARK    7  A    between atoms: C_15  and  C_16 
REMARK       I    between atoms: C_16  and  N_17 
REMARK    8  A    between atoms: C_23  and  C_24 
ROOT
HETATM    1  C   UNL     1       2.380   5.936   1.600  1.00  0.00     0.259 C 
HETATM    2  N   UNL     1       2.814   6.383   2.830  1.00  0.00    -0.323 N 
HETATM    3  O   UNL     1       2.095   6.807   0.777  1.00  0.00    -0.267 OA
HETATM    4  H   UNL     1       2.729   7.392   2.858  1.00  0.00     0.169 HD
ENDROOT
BRANCH   2   5
HETATM    5  C   UNL     1       3.268   5.773   4.012  1.00  0.00     0.035 A 
HETATM    6  C   UNL     1       3.657   4.445   4.147  1.00  0.00     0.032 A 
HETATM    7  C   UNL     1       3.954   3.919   5.414  1.00  0.00     0.039 A 
HETATM    8  C   UNL     1       3.912   4.721   6.555  1.00  0.00     0.069 A 
HETATM    9  C   UNL     1       3.653   6.080   6.405  1.00  0.00     0.039 A 
HETATM   10  C   UNL     1       3.328   6.596   5.145  1.00  0.00     0.032 A 
BRANCH   8  11
HETATM   11  O   UNL     1       4.124   4.064   7.734  1.00  0.00    -0.342 OA
BRANCH  11  12
HETATM   12  C   UNL     1       3.947   4.802   8.941  1.00  0.00     0.278 C 
BRANCH  12  13
HETATM   13  C   UNL     1       3.573   3.885  10.105  1.00  0.00     0.241 C 
HETATM   14  N   UNL     1       2.802   2.801   9.741  1.00  0.00    -0.364 N 
HETATM   15  C   UNL     1       2.183   1.938  10.713  1.00  0.00     0.149 C 
HETATM   16  H   UNL     1       2.581   2.689   8.757  1.00  0.00     0.161 HD
HETATM   17  O   UNL     1       3.851   4.159  11.270  1.00  0.00    -0.271 OA
ENDBRANCH  12  13
ENDBRANCH  11  12
ENDBRANCH   8  11
ENDBRANCH   2   5
BRANCH   1  18
HETATM   18  C   UNL     1       2.190   4.527   1.325  1.00  0.00     0.076 A 
HETATM   19  C   UNL     1       1.432   3.624   2.108  1.00  0.00     0.158 A 
HETATM   20  N   UNL     1       1.493   2.370   1.669  1.00  0.00    -0.183 NA
HETATM   21  N   UNL     1       2.212   2.462   0.532  1.00  0.00    -0.268 N 
HETATM   22  C   UNL     1       2.614   3.754   0.247  1.00  0.00     0.052 A 
BRANCH  21  23
HETATM   23  C   UNL     1       2.540   1.242  -0.206  1.00  0.00     0.106 C 
HETATM   24  C   UNL     1       3.854   0.661   0.325  1.00  0.00     0.034 C 
BRANCH  23  25
HETATM   25  C   UNL     1       1.432   0.169  -0.190  1.00  0.00     0.022 C 
HETATM   26  C   UNL     1       0.165   0.617  -0.907  1.00  0.00     0.007 C 
ENDBRANCH  23  25
ENDBRANCH  21  23
BRANCH  22  27
HETATM   27  C   UNL     1       3.395   4.144  -1.013  1.00  0.00     0.038 A 
HETATM   28  C   UNL     1       2.949   5.353  -1.804  1.00  0.00     0.011 A 
HETATM   29  C   UNL     1       4.255   5.380  -1.079  1.00  0.00     0.011 A 
ENDBRANCH  22  27
ENDBRANCH   1  18
TORSDOF 8
