REMARK  8 active torsions:
REMARK  status: ('A' for Active; 'I' for Inactive)
REMARK    1  A    between atoms: C_2  and  O_3 
REMARK    2  A    between atoms: O_3  and  C_4 
REMARK    3  A    between atoms: C_7  and  N_8 
REMARK       I    between atoms: N_8  and  C_9 
REMARK    4  A    between atoms: C_9  and  C_10 
REMARK    5  A    between atoms: C_12  and  N_13 
REMARK    6  A    between atoms: N_16  and  C_18 
REMARK    7  A    between atoms: C_18  and  C_19 
REMARK    8  A    between atoms: C_18  and  C_25 
ROOT
HETATM    1  C   UNL     1       9.261   0.140   1.041  1.00  0.00     0.164 C 
HETATM    2  N   UNL     1       8.687   0.349  -0.300  1.00  0.00    -0.249 NA
HETATM    3  C   UNL     1       8.386  -0.756  -1.042  1.00  0.00     0.181 C 
HETATM    4  N   UNL     1       8.762  -1.957  -0.735  1.00  0.00    -0.185 NA
HETATM    5  C   UNL     1       9.492  -2.146   0.406  1.00  0.00     0.247 C 
HETATM    6  O   UNL     1       9.465  -3.193   1.049  1.00  0.00    -0.271 OA
HETATM    7  C   UNL     1      10.266  -0.978   0.940  1.00  0.00     0.134 C 
HETATM    8  H   UNL     1       7.940   1.036  -0.229  1.00  0.00     0.131 HD
ENDROOT
BRANCH   3   9
HETATM    9  N   UNL     1       7.635  -0.531  -2.172  1.00  0.00    -0.353 N 
HETATM   10  C   UNL     1       7.257   0.782  -2.708  1.00  0.00     0.153 C 
HETATM   11  C   UNL     1       5.756   1.036  -2.449  1.00  0.00     0.256 C 
HETATM   12  N   UNL     1       4.921  -0.101  -3.045  1.00  0.00    -0.056 N 
HETATM   13  H   UNL     1       5.147  -0.162  -4.039  1.00  0.00     0.281 HD
HETATM   14  C   UNL     1       5.374  -1.452  -2.471  1.00  0.00     0.256 C 
HETATM   15  C   UNL     1       6.875  -1.650  -2.766  1.00  0.00     0.153 C 
BRANCH  12  16
HETATM   16  C   UNL     1       3.402   0.110  -2.987  1.00  0.00     0.254 C 
BRANCH  16  17
HETATM   17  C   UNL     1       2.894   0.226  -1.550  1.00  0.00    -0.023 A 
HETATM   18  C   UNL     1       2.948   1.438  -0.835  1.00  0.00     0.009 A 
HETATM   19  C   UNL     1       2.515   1.507   0.490  1.00  0.00     0.001 A 
HETATM   20  C   UNL     1       2.017   0.371   1.121  1.00  0.00     0.000 A 
HETATM   21  C   UNL     1       1.941  -0.834   0.427  1.00  0.00     0.001 A 
HETATM   22  C   UNL     1       2.373  -0.908  -0.898  1.00  0.00     0.009 A 
ENDBRANCH  16  17
BRANCH  16  23
HETATM   23  C   UNL     1       2.866   1.173  -3.965  1.00  0.00    -0.023 A 
HETATM   24  C   UNL     1       3.585   1.609  -5.096  1.00  0.00     0.009 A 
HETATM   25  C   UNL     1       3.038   2.534  -5.993  1.00  0.00     0.001 A 
HETATM   26  C   UNL     1       1.756   3.032  -5.793  1.00  0.00     0.000 A 
HETATM   27  C   UNL     1       1.011   2.595  -4.705  1.00  0.00     0.001 A 
HETATM   28  C   UNL     1       1.552   1.666  -3.812  1.00  0.00     0.009 A 
ENDBRANCH  16  23
ENDBRANCH  12  16
ENDBRANCH   3   9
BRANCH   1  29
HETATM   29  C   UNL     1       8.072  -0.019   2.036  1.00  0.00     0.240 C 
HETATM   30  N   UNL     1       8.083  -1.115   2.874  1.00  0.00    -0.326 N 
HETATM   31  H   UNL     1       8.730  -1.877   2.687  1.00  0.00     0.169 HD
HETATM   32  O   UNL     1       7.163   0.817   1.971  1.00  0.00    -0.271 OA
BRANCH  30  33
HETATM   33  C   UNL     1       7.125  -1.433   3.862  1.00  0.00     0.034 A 
HETATM   34  C   UNL     1       6.203  -0.523   4.380  1.00  0.00     0.032 A 
HETATM   35  C   UNL     1       5.288  -0.919   5.368  1.00  0.00     0.039 A 
HETATM   36  C   UNL     1       5.283  -2.231   5.838  1.00  0.00     0.068 A 
HETATM   37  C   UNL     1       6.210  -3.138   5.326  1.00  0.00     0.039 A 
HETATM   38  C   UNL     1       7.132  -2.742   4.355  1.00  0.00     0.032 A 
BRANCH  36  39
HETATM   39  O   UNL     1       4.437  -2.752   6.775  1.00  0.00    -0.352 OA
BRANCH  39  40
HETATM   40  C   UNL     1       3.516  -1.858   7.396  1.00  0.00     0.171 C 
HETATM   41  C   UNL     1       2.674  -2.660   8.372  1.00  0.00     0.034 C 
ENDBRANCH  39  40
ENDBRANCH  36  39
ENDBRANCH  30  33
ENDBRANCH   1  29
TORSDOF 8
