REMARK  5 active torsions:
REMARK  status: ('A' for Active; 'I' for Inactive)
REMARK    1  A    between atoms: C_2  and  O_3 
REMARK    2  A    between atoms: O_3  and  C_4 
REMARK    3  A    between atoms: C_9  and  C_10 
REMARK    4  A    between atoms: C_10  and  N_11 
REMARK       I    between atoms: N_11  and  C_12 
REMARK       I    between atoms: C_12  and  N_13 
REMARK    5  A    between atoms: N_13  and  C_14 
ROOT
HETATM    1  N   UNL     1       2.729  -2.260   1.069  1.00  0.00    -0.338 N 
HETATM    2  C   UNL     1       1.835  -2.899   1.864  1.00  0.00     0.320 C 
HETATM    3  N   UNL     1       0.606  -3.171   1.349  1.00  0.00    -0.309 N 
HETATM    4  O   UNL     1       2.072  -3.200   3.032  1.00  0.00    -0.247 OA
HETATM    5  H   UNL     1       2.341  -1.637   0.375  1.00  0.00     0.164 HD
HETATM    6  H   UNL     1      -0.026  -3.471   2.083  1.00  0.00     0.170 HD
ENDROOT
BRANCH   1   7
HETATM    7  C   UNL     1       4.094  -2.005   1.488  1.00  0.00     0.167 C 
BRANCH   7   8
HETATM    8  C   UNL     1       4.344  -0.590   1.938  1.00  0.00     0.013 A 
HETATM    9  C   UNL     1       5.581   0.020   1.719  1.00  0.00     0.172 A 
HETATM   10  N   UNL     1       5.893   1.273   2.127  1.00  0.00    -0.237 NA
HETATM   11  C   UNL     1       4.945   1.946   2.811  1.00  0.00     0.119 A 
HETATM   12  C   UNL     1       3.700   1.427   3.111  1.00  0.00     0.020 A 
HETATM   13  C   UNL     1       3.401   0.139   2.674  1.00  0.00     0.014 A 
BRANCH   9  14
HETATM   14  O   UNL     1       6.537  -0.716   1.046  1.00  0.00    -0.334 OA
BRANCH  14  15
HETATM   15  C   UNL     1       7.805  -0.065   0.953  1.00  0.00     0.173 C 
HETATM   16  C   UNL     1       8.759  -1.009   0.243  1.00  0.00     0.034 C 
ENDBRANCH  14  15
ENDBRANCH   9  14
ENDBRANCH   7   8
ENDBRANCH   1   7
BRANCH   3  17
HETATM   17  C   UNL     1       0.109  -3.248   0.034  1.00  0.00     0.037 A 
HETATM   18  C   UNL     1       0.895  -3.219  -1.118  1.00  0.00     0.049 A 
HETATM   19  C   UNL     1       0.307  -3.330  -2.387  1.00  0.00     0.019 A 
HETATM   20 BR   UNL     1       1.464  -3.236  -3.893  1.00  0.00    -0.051 Br
HETATM   21  C   UNL     1      -1.077  -3.509  -2.528  1.00  0.00    -0.044 A 
HETATM   22  C   UNL     1      -1.750  -3.630  -3.866  1.00  0.00     0.049 C 
HETATM   23  C   UNL     1      -1.859  -3.550  -1.367  1.00  0.00     0.010 A 
HETATM   24  C   UNL     1      -1.272  -3.428  -0.104  1.00  0.00     0.030 A 
ENDBRANCH   3  17
TORSDOF 5
