REMARK  7 active torsions:
REMARK  status: ('A' for Active; 'I' for Inactive)
REMARK    1  A    between atoms: C_4  and  C_5 
REMARK    2  A    between atoms: C_5  and  N_6 
REMARK    3  A    between atoms: N_10  and  N_11 
REMARK       I    between atoms: N_11  and  C_12 
REMARK    4  A    between atoms: C_12  and  C_13 
REMARK    5  A    between atoms: C_13  and  N_14 
REMARK       I    between atoms: N_14  and  C_15 
REMARK    6  A    between atoms: C_15  and  C_16 
REMARK    7  A    between atoms: C_17  and  O_18 
ROOT
HETATM    1  N   UNL     1       3.395  -1.169  -0.255  1.00  0.00    -0.307 N 
HETATM    2  C   UNL     1       4.727  -1.477  -0.044  1.00  0.00     0.280 A 
HETATM    3  O   UNL     1       5.682  -0.751   0.139  1.00  0.00    -0.265 OA
HETATM    4  C   UNL     1       4.808  -2.999  -0.078  1.00  0.00     0.157 A 
HETATM    5  N   UNL     1       5.845  -3.766   0.032  1.00  0.00    -0.166 NA
HETATM    6  C   UNL     1       3.446  -3.471  -0.289  1.00  0.00     0.027 A 
HETATM    7  C   UNL     1       2.634  -2.343  -0.397  1.00  0.00     0.050 A 
HETATM    8  C   UNL     1       2.965  -4.762  -0.402  1.00  0.00     0.016 A 
HETATM    9  C   UNL     1       1.598  -4.911  -0.631  1.00  0.00     0.001 A 
HETATM   10  C   UNL     1       0.762  -3.783  -0.741  1.00  0.00     0.002 A 
HETATM   11  C   UNL     1       1.278  -2.484  -0.625  1.00  0.00     0.031 A 
ENDROOT
BRANCH   5  12
HETATM   12  N   UNL     1       7.068  -3.176   0.177  1.00  0.00    -0.245 N 
HETATM   13  C   UNL     1       8.197  -3.982   0.239  1.00  0.00     0.255 C 
HETATM   14  O   UNL     1       8.189  -5.213   0.252  1.00  0.00    -0.270 OA
HETATM   15  H   UNL     1       7.152  -2.152   0.185  1.00  0.00     0.192 HD
BRANCH  13  16
HETATM   16  C   UNL     1       9.506  -3.204   0.295  1.00  0.00     0.227 C 
BRANCH  16  17
HETATM   17  N   UNL     1       9.662  -2.530   1.571  1.00  0.00    -0.348 N 
HETATM   18  C   UNL     1       9.319  -1.209   1.731  1.00  0.00     0.254 C 
HETATM   19  O   UNL     1       8.827  -0.537   0.834  1.00  0.00    -0.268 OA
HETATM   20  H   UNL     1      10.145  -3.024   2.317  1.00  0.00     0.163 HD
BRANCH  18  21
HETATM   21  C   UNL     1       9.602  -0.621   3.062  1.00  0.00     0.065 A 
HETATM   22  C   UNL     1       9.475  -1.344   4.255  1.00  0.00     0.081 A 
HETATM   23  C   UNL     1       9.832  -0.762   5.470  1.00  0.00     0.037 A 
HETATM   24  C   UNL     1      10.289   0.556   5.504  1.00  0.00     0.003 A 
HETATM   25  C   UNL     1      10.386   1.295   4.324  1.00  0.00     0.001 A 
HETATM   26  C   UNL     1      10.040   0.709   3.105  1.00  0.00     0.020 A 
BRANCH  22  27
HETATM   27  O   UNL     1       8.991  -2.622   4.314  1.00  0.00    -0.360 OA
HETATM   28  H   UNL     1       8.396  -2.767   3.554  1.00  0.00     0.217 HD
ENDBRANCH  22  27
ENDBRANCH  18  21
ENDBRANCH  16  17
ENDBRANCH  13  16
ENDBRANCH   5  12
BRANCH   1  29
HETATM   29  C   UNL     1       2.873   0.177  -0.274  1.00  0.00     0.171 C 
BRANCH  29  30
HETATM   30  C   UNL     1       2.261   0.588   1.045  1.00  0.00    -0.040 A 
HETATM   31  C   UNL     1       3.073   0.793   2.171  1.00  0.00     0.009 A 
HETATM   32  C   UNL     1       2.512   1.171   3.392  1.00  0.00     0.001 A 
HETATM   33  C   UNL     1       1.134   1.348   3.502  1.00  0.00     0.000 A 
HETATM   34  C   UNL     1       0.317   1.152   2.391  1.00  0.00     0.001 A 
HETATM   35  C   UNL     1       0.877   0.777   1.168  1.00  0.00     0.009 A 
ENDBRANCH  29  30
ENDBRANCH   1  29
TORSDOF 7
