REMARK  4 active torsions:
REMARK  status: ('A' for Active; 'I' for Inactive)
REMARK    1  A    between atoms: C_5  and  C_6 
REMARK    2  A    between atoms: C_6  and  N_7 
REMARK    3  A    between atoms: C_13  and  C_14 
REMARK    4  A    between atoms: C_14  and  N_15 
ROOT
HETATM    1  N   UNL     1       6.625  -0.821  -0.382  1.00  0.00    -0.060 N 
HETATM    2  H   UNL     1       7.223  -1.457  -0.917  1.00  0.00     0.280 HD
HETATM    3  C   UNL     1       7.073  -0.898   1.074  1.00  0.00     0.274 C 
HETATM    4  C   UNL     1       8.629  -0.889   1.232  1.00  0.00     0.092 C 
HETATM    5  C   UNL     1       9.036  -0.611   2.701  1.00  0.00     0.041 C 
HETATM    6  C   UNL     1       8.759  -1.771   3.658  1.00  0.00     0.009 C 
HETATM    7  C   UNL     1       9.458  -3.066   3.208  1.00  0.00     0.012 C 
HETATM    8  C   UNL     1       9.011  -3.408   1.779  1.00  0.00     0.009 C 
HETATM    9  C   UNL     1       9.255  -2.245   0.809  1.00  0.00     0.041 C 
HETATM   10  O   UNL     1       9.265   0.085   0.364  1.00  0.00    -0.338 OA
HETATM   11  C   UNL     1       8.712   1.334   0.422  1.00  0.00     0.077 A 
HETATM   12  C   UNL     1       7.509   1.592  -0.240  1.00  0.00     0.001 A 
HETATM   13  C   UNL     1       6.851   0.527  -1.061  1.00  0.00     0.276 C 
HETATM   14  C   UNL     1       9.400   2.343   1.090  1.00  0.00     0.037 A 
HETATM   15  C   UNL     1       8.852   3.623   1.153  1.00  0.00     0.003 A 
HETATM   16  C   UNL     1       7.636   3.892   0.528  1.00  0.00     0.001 A 
HETATM   17  C   UNL     1       6.971   2.886  -0.176  1.00  0.00     0.012 A 
ENDROOT
BRANCH   1  18
HETATM   18  C   UNL     1       5.211  -1.331  -0.590  1.00  0.00     0.276 C 
BRANCH  18  19
HETATM   19  C   UNL     1       4.197  -0.742   0.317  1.00  0.00     0.004 A 
HETATM   20  C   UNL     1       3.577  -1.379   1.418  1.00  0.00     0.149 A 
HETATM   21  N   UNL     1       2.753  -0.571   2.077  1.00  0.00    -0.185 NA
HETATM   22  N   UNL     1       2.761   0.566   1.363  1.00  0.00    -0.285 N 
HETATM   23  C   UNL     1       1.906   1.666   1.745  1.00  0.00     0.179 C 
HETATM   24  C   UNL     1       3.629   0.519   0.305  1.00  0.00     0.122 A 
ENDBRANCH  18  19
ENDBRANCH   1  18
BRANCH   7  25
HETATM   25  C   UNL     1       9.174  -4.186   4.233  1.00  0.00     0.238 C 
BRANCH  25  26
HETATM   26  N   UNL     1       9.879  -5.488   3.918  1.00  0.00    -0.078 N 
HETATM   27  H   UNL     1       9.658  -5.771   2.956  1.00  0.00     0.278 HD
HETATM   28  C   UNL     1      11.383  -5.411   4.022  1.00  0.00     0.269 C 
HETATM   29  C   UNL     1       9.357  -6.607   4.796  1.00  0.00     0.269 C 
ENDBRANCH  25  26
ENDBRANCH   7  25
TORSDOF 4
