REMARK  8 active torsions:
REMARK  status: ('A' for Active; 'I' for Inactive)
REMARK    1  A    between atoms: C_6  and  N_7 
REMARK    2  A    between atoms: C_6  and  C_26 
REMARK       I    between atoms: N_7  and  C_8 
REMARK    3  A    between atoms: N_7  and  C_23 
REMARK    4  A    between atoms: C_8  and  C_9 
REMARK    5  A    between atoms: C_9  and  N_10 
REMARK    6  A    between atoms: C_14  and  C_15 
REMARK       I    between atoms: C_26  and  N_27 
REMARK    7  A    between atoms: N_27  and  C_28 
REMARK    8  A    between atoms: C_31  and  N_32 
ROOT
HETATM    1  C   UNL     1       0.680   0.729  -0.364  1.00  0.00     0.269 C 
HETATM    2  N   UNL     1       2.112   0.506   0.055  1.00  0.00    -0.075 N 
HETATM    3  H   UNL     1       2.650   0.428  -0.824  1.00  0.00     0.279 HD
HETATM    4  C   UNL     1       2.639   1.687   0.828  1.00  0.00     0.237 C 
HETATM    5  C   UNL     1       4.089   1.467   1.258  1.00  0.00     0.069 C 
HETATM    6  C   UNL     1       4.363   0.105   1.940  1.00  0.00     0.120 C 
HETATM    7  C   UNL     1       3.733  -1.022   1.087  1.00  0.00     0.069 C 
HETATM    8  C   UNL     1       2.255  -0.797   0.800  1.00  0.00     0.237 C 
ENDROOT
BRANCH   6   9
HETATM    9  N   UNL     1       5.850  -0.083   2.187  1.00  0.00    -0.328 N 
HETATM   10  C   UNL     1       6.845  -0.541   1.310  1.00  0.00     0.239 C 
HETATM   11  O   UNL     1       7.931  -0.937   1.758  1.00  0.00    -0.271 OA
BRANCH  10  12
HETATM   12  C   UNL     1       6.628  -0.617  -0.203  1.00  0.00     0.228 C 
BRANCH  12  13
HETATM   13  N   UNL     1       6.214  -1.936  -0.679  1.00  0.00    -0.347 N 
HETATM   14  C   UNL     1       5.499  -2.210  -1.849  1.00  0.00     0.171 C 
HETATM   15  S   UNL     1       4.694  -1.158  -2.844  1.00  0.00    -0.041 SA
HETATM   16  N   UNL     1       5.505  -3.580  -2.039  1.00  0.00    -0.357 N 
HETATM   17  C   UNL     1       6.091  -4.279  -0.911  1.00  0.00     0.135 C 
HETATM   18  H   UNL     1       5.040  -4.032  -2.817  1.00  0.00     0.162 HD
HETATM   19  C   UNL     1       6.909  -3.149  -0.254  1.00  0.00     0.155 C 
BRANCH  17  20
HETATM   20  C   UNL     1       5.041  -4.876   0.023  1.00  0.00    -0.034 A 
HETATM   21  C   UNL     1       3.691  -5.012  -0.345  1.00  0.00     0.009 A 
HETATM   22  C   UNL     1       2.761  -5.594   0.522  1.00  0.00     0.001 A 
HETATM   23  C   UNL     1       3.163  -6.057   1.771  1.00  0.00     0.000 A 
HETATM   24  C   UNL     1       4.498  -5.951   2.149  1.00  0.00     0.001 A 
HETATM   25  C   UNL     1       5.429  -5.378   1.280  1.00  0.00     0.009 A 
ENDBRANCH  17  20
ENDBRANCH  12  13
ENDBRANCH  10  12
BRANCH   9  26
HETATM   26  C   UNL     1       6.384   0.360   3.485  1.00  0.00     0.088 A 
HETATM   27  C   UNL     1       7.236   1.611   3.529  1.00  0.00     0.027 A 
HETATM   28  C   UNL     1       5.948   1.561   4.284  1.00  0.00     0.027 A 
ENDBRANCH   9  26
ENDBRANCH   6   9
BRANCH   6  29
HETATM   29  C   UNL     1       3.574  -0.011   3.295  1.00  0.00     0.251 C 
HETATM   30  N   UNL     1       3.808  -1.200   3.970  1.00  0.00    -0.325 N 
HETATM   31  H   UNL     1       4.657  -1.705   3.732  1.00  0.00     0.169 HD
HETATM   32  O   UNL     1       2.684   0.793   3.559  1.00  0.00    -0.270 OA
BRANCH  30  33
HETATM   33  C   UNL     1       2.967  -1.819   4.918  1.00  0.00     0.034 A 
HETATM   34  C   UNL     1       1.755  -1.291   5.346  1.00  0.00     0.032 A 
HETATM   35  C   UNL     1       0.934  -2.014   6.224  1.00  0.00     0.031 A 
HETATM   36  C   UNL     1       1.278  -3.288   6.699  1.00  0.00     0.030 A 
HETATM   37  C   UNL     1       2.522  -3.782   6.288  1.00  0.00     0.031 A 
HETATM   38  C   UNL     1       3.352  -3.067   5.408  1.00  0.00     0.032 A 
BRANCH  36  39
HETATM   39  N   UNL     1       0.429  -3.961   7.571  1.00  0.00    -0.377 N 
HETATM   40  C   UNL     1      -1.010  -4.044   7.219  1.00  0.00     0.149 C 
HETATM   41  C   UNL     1      -1.293  -5.353   6.461  1.00  0.00     0.187 C 
HETATM   42  O   UNL     1      -0.887  -6.504   7.219  1.00  0.00    -0.388 OA
HETATM   43  C   UNL     1       0.515  -6.440   7.529  1.00  0.00     0.187 C 
HETATM   44  C   UNL     1       0.865  -5.164   8.311  1.00  0.00     0.149 C 
ENDBRANCH  36  39
ENDBRANCH  30  33
ENDBRANCH   6  29
TORSDOF 8
