REMARK  6 active torsions:
REMARK  status: ('A' for Active; 'I' for Inactive)
REMARK    1  A    between atoms: C_2  and  C_4 
REMARK    2  A    between atoms: C_2  and  C_11 
REMARK    3  A    between atoms: C_2  and  O_3 
REMARK    4  A    between atoms: C_11  and  N_12 
REMARK       I    between atoms: N_12  and  C_13 
REMARK    5  A    between atoms: C_13  and  C_14 
REMARK    6  A    between atoms: C_15  and  C_16 
ROOT
HETATM    1  N   UNL     1       4.374   1.423   0.521  1.00  0.00    -0.354 N 
HETATM    2  C   UNL     1       5.021   2.475   1.131  1.00  0.00     0.255 C 
HETATM    3  O   UNL     1       4.407   3.444   1.568  1.00  0.00    -0.268 OA
HETATM    4  H   UNL     1       4.934   0.778  -0.021  1.00  0.00     0.162 HD
ENDROOT
BRANCH   2   5
HETATM    5  C   UNL     1       6.465   2.351   1.174  1.00  0.00     0.080 A 
HETATM    6  C   UNL     1       7.467   3.373   1.108  1.00  0.00     0.104 A 
HETATM    7  N   UNL     1       8.695   2.840   1.255  1.00  0.00    -0.174 NA
HETATM    8  N   UNL     1       8.488   1.528   1.393  1.00  0.00    -0.288 N 
HETATM    9  H   UNL     1       9.296   0.929   1.529  1.00  0.00     0.188 HD
HETATM   10  C   UNL     1       7.177   1.175   1.336  1.00  0.00     0.128 A 
BRANCH   6  11
HETATM   11  C   UNL     1       7.324   4.815   0.881  1.00  0.00    -0.004 A 
HETATM   12  C   UNL     1       8.208   5.713   1.505  1.00  0.00     0.017 A 
HETATM   13  C   UNL     1       8.108   7.088   1.277  1.00  0.00     0.043 A 
HETATM   14  C   UNL     1       7.126   7.569   0.422  1.00  0.00     0.116 A 
HETATM   15  F   UNL     1       7.031   8.887   0.199  1.00  0.00    -0.206 F 
HETATM   16  C   UNL     1       6.245   6.702  -0.213  1.00  0.00     0.043 A 
HETATM   17  C   UNL     1       6.348   5.326   0.011  1.00  0.00     0.017 A 
ENDBRANCH   6  11
ENDBRANCH   2   5
BRANCH   1  18
HETATM   18  C   UNL     1       2.935   1.441   0.292  1.00  0.00     0.165 C 
BRANCH  18  19
HETATM   19  C   UNL     1       2.477   2.388  -0.862  1.00  0.00     0.097 C 
HETATM   20  C   UNL     1       0.954   2.275  -1.031  1.00  0.00     0.053 C 
BRANCH  19  21
HETATM   21  C   UNL     1       3.176   2.061  -2.187  1.00  0.00    -0.023 A 
HETATM   22  C   UNL     1       3.077   0.778  -2.762  1.00  0.00     0.013 A 
HETATM   23  C   UNL     1       3.717   0.480  -3.968  1.00  0.00     0.043 A 
HETATM   24  C   UNL     1       4.459   1.460  -4.612  1.00  0.00     0.116 A 
HETATM   25  F   UNL     1       5.070   1.172  -5.769  1.00  0.00    -0.206 F 
HETATM   26  C   UNL     1       4.573   2.734  -4.075  1.00  0.00     0.043 A 
HETATM   27  C   UNL     1       3.932   3.032  -2.870  1.00  0.00     0.013 A 
ENDBRANCH  19  21
BRANCH  19  28
HETATM   28  O   UNL     1       2.717   3.762  -0.520  1.00  0.00    -0.384 OA
HETATM   29  H   UNL     1       3.087   3.802   0.387  1.00  0.00     0.211 HD
ENDBRANCH  19  28
ENDBRANCH  18  19
ENDBRANCH   1  18
TORSDOF 6
