REMARK  8 active torsions:
REMARK  status: ('A' for Active; 'I' for Inactive)
REMARK    1  A    between atoms: O_2  and  C_3 
REMARK    2  A    between atoms: C_6  and  C_7 
REMARK    3  A    between atoms: C_7  and  O_8 
REMARK    4  A    between atoms: C_7  and  C_9 
REMARK    5  A    between atoms: C_9  and  N_10 
REMARK    6  A    between atoms: C_11  and  N_12 
REMARK    7  A    between atoms: N_13  and  C_14 
REMARK    8  A    between atoms: C_14  and  C_15 
ROOT
HETATM    1  N   UNL     1       4.773  -7.561  -0.936  1.00  0.00    -0.178 N 
HETATM    2  C   UNL     1       5.946  -7.712  -1.543  1.00  0.00     0.681 A 
HETATM    3  N   UNL     1       6.290  -8.993  -1.537  1.00  0.00    -0.177 N 
HETATM    4  C   UNL     1       5.253  -9.739  -0.985  1.00  0.00     0.079 A 
HETATM    5  C   UNL     1       4.273  -8.819  -0.604  1.00  0.00     0.079 A 
HETATM    6  C   UNL     1       5.103 -11.110  -0.790  1.00  0.00     0.032 A 
HETATM    7  C   UNL     1       3.909 -11.517  -0.180  1.00  0.00     0.002 A 
HETATM    8  C   UNL     1       2.923 -10.590   0.209  1.00  0.00     0.002 A 
HETATM    9  C   UNL     1       3.084  -9.212   0.004  1.00  0.00     0.032 A 
ENDROOT
BRANCH   1  10
HETATM   10  C   UNL     1       4.135  -6.282  -0.594  1.00  0.00     0.184 C 
BRANCH  10  11
HETATM   11  C   UNL     1       4.393  -5.823   0.862  1.00  0.00     0.170 C 
BRANCH  11  12
HETATM   12  C   UNL     1       5.865  -5.835   1.218  1.00  0.00    -0.028 A 
HETATM   13  C   UNL     1       6.399  -6.922   1.922  1.00  0.00     0.012 A 
HETATM   14  C   UNL     1       7.767  -6.990   2.188  1.00  0.00     0.037 A 
HETATM   15  C   UNL     1       8.626  -5.975   1.765  1.00  0.00     0.068 A 
HETATM   16  C   UNL     1       8.102  -4.878   1.082  1.00  0.00     0.037 A 
HETATM   17  C   UNL     1       6.730  -4.807   0.810  1.00  0.00     0.012 A 
BRANCH  15  18
HETATM   18  O   UNL     1       9.941  -6.183   2.072  1.00  0.00    -0.356 OA
HETATM   19  C   UNL     1      10.858  -5.148   1.738  1.00  0.00     0.210 C 
ENDBRANCH  15  18
ENDBRANCH  11  12
BRANCH  11  20
HETATM   20  O   UNL     1       3.860  -4.512   1.046  1.00  0.00    -0.389 OA
HETATM   21  H   UNL     1       4.145  -4.206   1.928  1.00  0.00     0.210 HD
ENDBRANCH  11  20
ENDBRANCH  10  11
ENDBRANCH   1  10
BRANCH   2  22
HETATM   22  N   UNL     1       6.667  -6.734  -2.089  1.00  0.00    -0.234 N 
HETATM   23  H   UNL     1       6.377  -5.771  -2.032  1.00  0.00     0.174 HD
HETATM   24  H   UNL     1       7.507  -6.939  -2.609  1.00  0.00     0.174 HD
ENDBRANCH   2  22
BRANCH   3  25
HETATM   25  C   UNL     1       7.579  -9.530  -1.954  1.00  0.00     0.186 C 
BRANCH  25  26
HETATM   26  C   UNL     1       7.591  -9.932  -3.409  1.00  0.00    -0.039 A 
HETATM   27  C   UNL     1       6.478  -9.829  -4.258  1.00  0.00     0.009 A 
HETATM   28  C   UNL     1       6.551 -10.247  -5.589  1.00  0.00     0.001 A 
HETATM   29  C   UNL     1       7.737 -10.773  -6.093  1.00  0.00     0.000 A 
HETATM   30  C   UNL     1       8.853 -10.880  -5.269  1.00  0.00     0.001 A 
HETATM   31  C   UNL     1       8.782 -10.462  -3.938  1.00  0.00     0.009 A 
ENDBRANCH  25  26
ENDBRANCH   3  25
TORSDOF 8
