REMARK  9 active torsions:
REMARK  status: ('A' for Active; 'I' for Inactive)
REMARK    1  A    between atoms: C_2  and  N_3 
REMARK       I    between atoms: N_3  and  C_4 
REMARK    2  A    between atoms: C_4  and  C_5 
REMARK    3  A    between atoms: C_5  and  S_6 
REMARK    4  A    between atoms: S_6  and  C_7 
REMARK    5  A    between atoms: N_8  and  C_9 
REMARK    6  A    between atoms: C_9  and  C_10 
REMARK    7  A    between atoms: C_10  and  C_11 
REMARK    8  A    between atoms: C_17  and  C_18 
REMARK    9  A    between atoms: C_21  and  O_22 
ROOT
HETATM    1  C   UNL     1      -0.045   3.808  -0.555  1.00  0.00     0.192 A 
HETATM    2  N   UNL     1      -1.168   3.774  -1.342  1.00  0.00    -0.307 N 
HETATM    3  C   UNL     1      -1.612   5.083  -1.405  1.00  0.00     0.164 A 
HETATM    4  N   UNL     1      -0.814   5.822  -0.649  1.00  0.00    -0.128 NA
HETATM    5  N   UNL     1       0.142   5.021  -0.098  1.00  0.00    -0.122 NA
ENDROOT
BRANCH   1   6
HETATM    6  S   UNL     1       0.981   2.451  -0.246  1.00  0.00    -0.081 SA
BRANCH   6   7
HETATM    7  C   UNL     1       2.230   3.189   0.847  1.00  0.00     0.185 C 
BRANCH   7   8
HETATM    8  C   UNL     1       3.235   4.012   0.059  1.00  0.00     0.227 C 
HETATM    9  N   UNL     1       2.909   5.347  -0.064  1.00  0.00    -0.357 N 
HETATM   10  H   UNL     1       1.924   5.586   0.068  1.00  0.00     0.162 HD
HETATM   11  O   UNL     1       4.261   3.521  -0.407  1.00  0.00    -0.273 OA
BRANCH   9  12
HETATM   12  C   UNL     1       3.710   6.275  -0.846  1.00  0.00     0.076 C 
HETATM   13  C   UNL     1       3.408   7.707  -0.416  1.00  0.00     0.032 C 
HETATM   14  C   UNL     1       3.453   6.096  -2.341  1.00  0.00     0.032 C 
ENDBRANCH   9  12
ENDBRANCH   7   8
ENDBRANCH   6   7
ENDBRANCH   1   6
BRANCH   2  15
HETATM   15  C   UNL     1      -1.725   2.607  -2.001  1.00  0.00     0.137 C 
BRANCH  15  16
HETATM   16  C   UNL     1      -2.523   1.734  -1.026  1.00  0.00     0.059 C 
BRANCH  16  17
HETATM   17  C   UNL     1      -3.250   0.595  -1.697  1.00  0.00    -0.057 A 
HETATM   18  C   UNL     1      -2.546  -0.394  -2.399  1.00  0.00     0.007 A 
HETATM   19  C   UNL     1      -3.224  -1.463  -2.989  1.00  0.00     0.001 A 
HETATM   20  C   UNL     1      -4.609  -1.560  -2.875  1.00  0.00     0.000 A 
HETATM   21  C   UNL     1      -5.318  -0.589  -2.172  1.00  0.00     0.001 A 
HETATM   22  C   UNL     1      -4.643   0.483  -1.585  1.00  0.00     0.007 A 
ENDBRANCH  16  17
ENDBRANCH  15  16
ENDBRANCH   2  15
BRANCH   3  23
HETATM   23  C   UNL     1      -2.705   5.633  -2.209  1.00  0.00     0.012 A 
HETATM   24  C   UNL     1      -3.971   5.046  -2.291  1.00  0.00     0.018 A 
HETATM   25  C   UNL     1      -4.979   5.640  -3.061  1.00  0.00     0.037 A 
HETATM   26  C   UNL     1      -4.752   6.839  -3.739  1.00  0.00     0.068 A 
HETATM   27  C   UNL     1      -3.499   7.440  -3.652  1.00  0.00     0.037 A 
HETATM   28  C   UNL     1      -2.488   6.842  -2.890  1.00  0.00     0.018 A 
BRANCH  26  29
HETATM   29  O   UNL     1      -5.823   7.317  -4.441  1.00  0.00    -0.356 OA
HETATM   30  C   UNL     1      -5.686   8.611  -5.016  1.00  0.00     0.210 C 
ENDBRANCH  26  29
ENDBRANCH   3  23
TORSDOF 9
