REMARK  6 active torsions:
REMARK  status: ('A' for Active; 'I' for Inactive)
REMARK    1  A    between atoms: C_2  and  C_3 
REMARK    2  A    between atoms: C_5  and  S_6 
REMARK    3  A    between atoms: S_6  and  C_7 
REMARK    4  A    between atoms: C_7  and  C_8 
REMARK       I    between atoms: C_8  and  N_9 
REMARK    5  A    between atoms: N_9  and  C_10 
REMARK    6  A    between atoms: C_13  and  C_14 
ROOT
HETATM    1  C   UNL     1       0.833   5.807   2.177  1.00  0.00     0.233 C 
HETATM    2  N   UNL     1       1.677   6.861   2.426  1.00  0.00    -0.305 N 
HETATM    3  O   UNL     1      -0.302   5.671   2.634  1.00  0.00    -0.272 OA
HETATM    4  H   UNL     1       2.600   6.864   2.015  1.00  0.00     0.171 HD
ENDROOT
BRANCH   1   5
HETATM    5  C   UNL     1       1.379   4.743   1.230  1.00  0.00     0.184 C 
BRANCH   5   6
HETATM    6  S   UNL     1       3.127   4.991   0.753  1.00  0.00    -0.100 SA
BRANCH   6   7
HETATM    7  C   UNL     1       3.383   3.573  -0.279  1.00  0.00     0.109 A 
HETATM    8  N   UNL     1       2.326   2.769  -0.522  1.00  0.00    -0.226 NA
HETATM    9  C   UNL     1       2.491   1.685  -1.296  1.00  0.00     0.128 A 
HETATM   10  N   UNL     1       3.636   1.303  -1.862  1.00  0.00    -0.225 NA
HETATM   11  C   UNL     1       4.663   2.127  -1.604  1.00  0.00     0.113 A 
HETATM   12  C   UNL     1       4.643   3.281  -0.834  1.00  0.00     0.042 A 
HETATM   13  S   UNL     1       6.189   1.780  -2.260  1.00  0.00    -0.074 SA
HETATM   14  C   UNL     1       5.969   3.895  -0.805  1.00  0.00    -0.033 A 
HETATM   15  C   UNL     1       6.889   3.160  -1.544  1.00  0.00    -0.012 A 
HETATM   16  C   UNL     1       6.319   5.158  -0.078  1.00  0.00     0.050 C 
HETATM   17  C   UNL     1       8.342   3.437  -1.767  1.00  0.00     0.057 C 
BRANCH   9  18
HETATM   18  C   UNL     1       1.288   0.807  -1.511  1.00  0.00     0.076 C 
HETATM   19  C   UNL     1       1.143  -0.210  -0.391  1.00  0.00     0.013 C 
ENDBRANCH   9  18
ENDBRANCH   6   7
ENDBRANCH   5   6
ENDBRANCH   1   5
BRANCH   2  20
HETATM   20  C   UNL     1       1.345   7.912   3.230  1.00  0.00     0.173 A 
HETATM   21  S   UNL     1       2.582   9.071   3.408  1.00  0.00    -0.061 SA
HETATM   22  C   UNL     1       1.549   9.982   4.436  1.00  0.00     0.085 A 
HETATM   23  C   UNL     1       0.327   9.346   4.566  1.00  0.00     0.076 A 
HETATM   24  N   UNL     1       0.232   8.149   3.869  1.00  0.00    -0.223 NA
BRANCH  23  25
HETATM   25  C   UNL     1      -0.799   9.833   5.363  1.00  0.00    -0.007 A 
HETATM   26  C   UNL     1      -0.834  11.126   5.910  1.00  0.00     0.017 A 
HETATM   27  C   UNL     1      -1.935  11.552   6.662  1.00  0.00     0.043 A 
HETATM   28  C   UNL     1      -3.004  10.689   6.868  1.00  0.00     0.116 A 
HETATM   29  F   UNL     1      -4.055  11.101   7.587  1.00  0.00    -0.206 F 
HETATM   30  C   UNL     1      -2.997   9.408   6.335  1.00  0.00     0.043 A 
HETATM   31  C   UNL     1      -1.898   8.983   5.583  1.00  0.00     0.017 A 
ENDBRANCH  23  25
ENDBRANCH   2  20
TORSDOF 6
