REMARK  7 active torsions:
REMARK  status: ('A' for Active; 'I' for Inactive)
REMARK    1  A    between atoms: C_2  and  C_3 
REMARK    2  A    between atoms: C_3  and  N_4 
REMARK    3  A    between atoms: C_10  and  N_11 
REMARK       I    between atoms: N_11  and  C_12 
REMARK    4  A    between atoms: C_12  and  C_13 
REMARK    5  A    between atoms: C_13  and  N_14 
REMARK       I    between atoms: N_14  and  C_15 
REMARK       I    between atoms: C_15  and  N_16 
REMARK    6  A    between atoms: N_16  and  C_17 
REMARK    7  A    between atoms: C_17  and  C_18 
ROOT
HETATM    1  N   UNL     1       2.746  -6.253  -2.911  1.00  0.00    -0.325 N 
HETATM    2  C   UNL     1       1.492  -5.984  -3.428  1.00  0.00     0.239 C 
HETATM    3  O   UNL     1       0.657  -5.251  -2.904  1.00  0.00    -0.271 OA
HETATM    4  H   UNL     1       3.258  -6.998  -3.384  1.00  0.00     0.169 HD
ENDROOT
BRANCH   2   5
HETATM    5  C   UNL     1       1.167  -6.770  -4.701  1.00  0.00     0.227 C 
BRANCH   5   6
HETATM    6  N   UNL     1       0.498  -8.032  -4.426  1.00  0.00    -0.334 N 
HETATM    7  C   UNL     1       1.171  -9.217  -4.364  1.00  0.00     0.316 C 
HETATM    8  N   UNL     1       2.387  -9.141  -3.754  1.00  0.00    -0.339 N 
HETATM    9  O   UNL     1       0.698 -10.228  -4.861  1.00  0.00    -0.247 OA
HETATM   10  H   UNL     1       2.315  -8.730  -2.833  1.00  0.00     0.164 HD
HETATM   11  H   UNL     1      -0.384  -8.166  -4.909  1.00  0.00     0.164 HD
BRANCH   8  12
HETATM   12  C   UNL     1       3.322 -10.244  -3.858  1.00  0.00     0.162 C 
BRANCH  12  13
HETATM   13  C   UNL     1       4.700  -9.691  -4.124  1.00  0.00    -0.040 A 
HETATM   14  C   UNL     1       5.718  -9.775  -3.164  1.00  0.00     0.012 A 
HETATM   15  C   UNL     1       6.977  -9.228  -3.425  1.00  0.00     0.043 A 
HETATM   16  C   UNL     1       7.218  -8.605  -4.645  1.00  0.00     0.116 A 
HETATM   17  F   UNL     1       8.423  -8.073  -4.886  1.00  0.00    -0.206 F 
HETATM   18  C   UNL     1       6.228  -8.521  -5.614  1.00  0.00     0.043 A 
HETATM   19  C   UNL     1       4.970  -9.065  -5.356  1.00  0.00     0.012 A 
ENDBRANCH  12  13
ENDBRANCH   8  12
ENDBRANCH   5   6
ENDBRANCH   2   5
BRANCH   1  20
HETATM   20  C   UNL     1       3.334  -5.755  -1.728  1.00  0.00     0.043 A 
HETATM   21  C   UNL     1       2.948  -4.627  -1.007  1.00  0.00     0.002 A 
HETATM   22  C   UNL     1       1.877  -3.617  -1.271  1.00  0.00     0.276 C 
HETATM   23  C   UNL     1       3.636  -4.255   0.164  1.00  0.00    -0.022 A 
HETATM   24  N   UNL     1       2.136  -2.445  -0.311  1.00  0.00    -0.063 N 
HETATM   25  H   UNL     1       1.248  -2.223   0.150  1.00  0.00     0.280 HD
HETATM   26  C   UNL     1       3.070  -3.006   0.750  1.00  0.00     0.274 C 
HETATM   27  C   UNL     1       4.700  -4.994   0.654  1.00  0.00     0.009 A 
HETATM   28  C   UNL     1       5.108  -6.109  -0.067  1.00  0.00     0.003 A 
HETATM   29  C   UNL     1       4.443  -6.473  -1.248  1.00  0.00     0.030 A 
BRANCH  24  30
HETATM   30  C   UNL     1       2.678  -1.206  -0.969  1.00  0.00     0.239 C 
BRANCH  30  31
HETATM   31  C   UNL     1       1.655  -0.520  -1.892  1.00  0.00     0.003 C 
HETATM   32  C   UNL     1       2.300   0.719  -2.520  1.00  0.00     0.011 C 
HETATM   33  C   UNL     1       0.369  -0.120  -1.168  1.00  0.00     0.011 C 
ENDBRANCH  30  31
ENDBRANCH  24  30
ENDBRANCH   1  20
TORSDOF 7
