REMARK  7 active torsions:
REMARK  status: ('A' for Active; 'I' for Inactive)
REMARK    1  A    between atoms: C_2  and  O_3 
REMARK    2  A    between atoms: O_3  and  C_4 
REMARK    3  A    between atoms: C_5  and  N_6 
REMARK       I    between atoms: N_6  and  C_7 
REMARK    4  A    between atoms: C_7  and  C_8 
REMARK    5  A    between atoms: C_8  and  N_9 
REMARK    6  A    between atoms: C_20  and  C_21 
REMARK       I    between atoms: C_21  and  N_22 
REMARK    7  A    between atoms: N_22  and  C_23 
ROOT
HETATM    1  N   UNL     1       6.933   4.047  -2.047  1.00  0.00    -0.304 N 
HETATM    2  C   UNL     1       6.549   2.880  -2.717  1.00  0.00     0.259 C 
HETATM    3  O   UNL     1       6.192   2.869  -3.895  1.00  0.00    -0.270 OA
HETATM    4  C   UNL     1       6.527   1.630  -1.818  1.00  0.00     0.141 C 
HETATM    5  C   UNL     1       5.313   1.690  -0.875  1.00  0.00     0.057 C 
HETATM    6  C   UNL     1       6.409   0.373  -2.688  1.00  0.00     0.057 C 
HETATM    7  O   UNL     1       7.715   1.468  -1.043  1.00  0.00    -0.329 OA
HETATM    8  C   UNL     1       8.225   2.631  -0.530  1.00  0.00     0.097 A 
HETATM    9  C   UNL     1       7.847   3.917  -0.957  1.00  0.00     0.072 A 
HETATM   10  C   UNL     1       9.207   2.448   0.447  1.00  0.00     0.040 A 
HETATM   11  C   UNL     1       9.817   3.548   1.042  1.00  0.00     0.020 A 
HETATM   12  C   UNL     1       9.426   4.836   0.670  1.00  0.00     0.034 A 
HETATM   13  C   UNL     1       8.450   5.015  -0.328  1.00  0.00     0.049 A 
ENDROOT
BRANCH   1  14
HETATM   14  C   UNL     1       6.728   5.304  -2.761  1.00  0.00     0.235 C 
BRANCH  14  15
HETATM   15  C   UNL     1       5.253   5.529  -3.152  1.00  0.00     0.240 C 
HETATM   16  N   UNL     1       5.115   6.554  -4.071  1.00  0.00    -0.323 N 
HETATM   17  H   UNL     1       5.840   7.263  -4.129  1.00  0.00     0.169 HD
HETATM   18  O   UNL     1       4.324   4.893  -2.659  1.00  0.00    -0.271 OA
BRANCH  16  19
HETATM   19  C   UNL     1       4.033   6.766  -4.950  1.00  0.00     0.068 A 
HETATM   20  C   UNL     1       3.980   7.995  -5.635  1.00  0.00     0.095 A 
HETATM   21  C   UNL     1       3.009   8.205  -6.619  1.00  0.00     0.039 A 
HETATM   22  C   UNL     1       2.073   7.208  -6.898  1.00  0.00     0.003 A 
HETATM   23  C   UNL     1       2.104   6.004  -6.196  1.00  0.00     0.002 A 
HETATM   24  C   UNL     1       3.082   5.782  -5.224  1.00  0.00     0.032 A 
BRANCH  20  25
HETATM   25  O   UNL     1       4.936   8.925  -5.292  1.00  0.00    -0.349 OA
BRANCH  25  26
HETATM   26  C   UNL     1       4.538  10.290  -5.448  1.00  0.00     0.171 C 
HETATM   27  C   UNL     1       5.420  11.145  -4.556  1.00  0.00     0.034 C 
ENDBRANCH  25  26
ENDBRANCH  20  25
ENDBRANCH  16  19
ENDBRANCH  14  15
ENDBRANCH   1  14
BRANCH  12  28
HETATM   28  C   UNL     1      10.058   6.049   1.260  1.00  0.00     0.252 C 
HETATM   29  N   UNL     1      10.535   5.930   2.548  1.00  0.00    -0.352 N 
HETATM   30  H   UNL     1      10.386   5.076   3.067  1.00  0.00     0.163 HD
HETATM   31  O   UNL     1      10.111   7.086   0.609  1.00  0.00    -0.268 OA
BRANCH  29  32
HETATM   32  C   UNL     1      11.206   7.028   3.210  1.00  0.00     0.084 C 
HETATM   33  C   UNL     1      11.328   6.817   4.715  1.00  0.00     0.025 C 
HETATM   34  C   UNL     1      12.403   7.816   5.108  1.00  0.00     0.002 C 
HETATM   35  C   UNL     1      13.410   7.762   3.964  1.00  0.00     0.002 C 
HETATM   36  C   UNL     1      12.658   7.200   2.755  1.00  0.00     0.025 C 
ENDBRANCH  29  32
ENDBRANCH  12  28
TORSDOF 7
