REMARK  6 active torsions:
REMARK  status: ('A' for Active; 'I' for Inactive)
REMARK       I    between atoms: N_2  and  C_3 
REMARK    1  A    between atoms: N_2  and  C_15 
REMARK       I    between atoms: C_3  and  N_4 
REMARK    2  A    between atoms: N_4  and  C_5 
REMARK    3  A    between atoms: C_15  and  C_16 
REMARK    4  A    between atoms: C_16  and  C_17 
REMARK    5  A    between atoms: C_17  and  C_18 
REMARK    6  A    between atoms: C_22  and  C_23 
ROOT
HETATM    1  C   UNL     1       1.449   1.340   0.730  1.00  0.00     0.154 C 
HETATM    2  N   UNL     1       2.428   0.514   0.031  1.00  0.00    -0.338 N 
HETATM    3  C   UNL     1       2.761   0.889  -1.273  1.00  0.00     0.322 C 
HETATM    4  N   UNL     1       3.534  -0.019  -1.962  1.00  0.00    -0.309 N 
HETATM    5  O   UNL     1       2.372   1.957  -1.740  1.00  0.00    -0.247 OA
HETATM    6  H   UNL     1       3.661  -0.919  -1.536  1.00  0.00     0.170 HD
ENDROOT
BRANCH   2   7
HETATM    7  C   UNL     1       2.811  -0.725   0.714  1.00  0.00     0.127 C 
BRANCH   7   8
HETATM    8  C   UNL     1       4.290  -0.810   1.117  1.00  0.00     0.026 C 
BRANCH   8   9
HETATM    9  C   UNL     1       4.827   0.372   1.927  1.00  0.00     0.060 C 
BRANCH   9  10
HETATM   10  C   UNL     1       4.137   0.593   3.227  1.00  0.00     0.030 A 
HETATM   11  N   UNL     1       3.829   1.848   3.668  1.00  0.00    -0.282 N 
HETATM   12  H   UNL     1       4.018   2.735   3.212  1.00  0.00     0.189 HD
HETATM   13  N   UNL     1       3.166   1.866   4.829  1.00  0.00    -0.174 NA
HETATM   14  C   UNL     1       3.077   0.577   5.200  1.00  0.00     0.089 A 
HETATM   15  C   UNL     1       3.694  -0.253   4.220  1.00  0.00     0.060 A 
BRANCH  14  16
HETATM   16  C   UNL     1       2.404   0.182   6.444  1.00  0.00    -0.006 A 
HETATM   17  C   UNL     1       1.659   1.121   7.176  1.00  0.00     0.014 A 
HETATM   18  C   UNL     1       1.004   0.758   8.355  1.00  0.00     0.001 A 
HETATM   19  C   UNL     1       1.086  -0.550   8.822  1.00  0.00     0.000 A 
HETATM   20  C   UNL     1       1.824  -1.495   8.112  1.00  0.00     0.001 A 
HETATM   21  C   UNL     1       2.479  -1.132   6.930  1.00  0.00     0.014 A 
ENDBRANCH  14  16
ENDBRANCH   9  10
ENDBRANCH   8   9
ENDBRANCH   7   8
ENDBRANCH   2   7
BRANCH   4  22
HETATM   22  C   UNL     1       4.060   0.108  -3.268  1.00  0.00     0.036 A 
HETATM   23  C   UNL     1       3.945   1.262  -4.047  1.00  0.00     0.039 A 
HETATM   24  C   UNL     1       4.497   1.268  -5.321  1.00  0.00    -0.024 A 
HETATM   25  C   UNL     1       5.155   0.162  -5.830  1.00  0.00    -0.026 A 
HETATM   26  C   UNL     1       4.480   2.344  -6.342  1.00  0.00     0.207 C 
HETATM   27  C   UNL     1       5.604   0.453  -7.213  1.00  0.00     0.207 C 
HETATM   28  C   UNL     1       5.287  -0.992  -5.081  1.00  0.00     0.012 A 
HETATM   29  O   UNL     1       5.358   1.868  -7.390  1.00  0.00    -0.382 OA
HETATM   30  C   UNL     1       4.739  -1.012  -3.794  1.00  0.00     0.030 A 
ENDBRANCH   4  22
TORSDOF 6
