REMARK  8 active torsions:
REMARK  status: ('A' for Active; 'I' for Inactive)
REMARK    1  A    between atoms: C_7  and  C_8 
REMARK    2  A    between atoms: C_8  and  C_9 
REMARK    3  A    between atoms: C_9  and  N_10 
REMARK       I    between atoms: N_10  and  C_11 
REMARK    4  A    between atoms: C_11  and  C_12 
REMARK    5  A    between atoms: C_12  and  S_13 
REMARK    6  A    between atoms: S_13  and  C_14 
REMARK    7  A    between atoms: C_23  and  O_24 
REMARK    8  A    between atoms: O_24  and  C_25 
ROOT
HETATM    1  C   UNL     1       0.763   0.198   0.165  1.00  0.00     0.068 C 
HETATM    2  C   UNL     1       2.245   0.174   0.045  1.00  0.00     0.013 A 
HETATM    3  N   UNL     1       2.984   1.328  -0.005  1.00  0.00    -0.359 N 
HETATM    4  H   UNL     1       2.604   2.264   0.037  1.00  0.00     0.166 HD
HETATM    5  C   UNL     1       4.322   1.039  -0.131  1.00  0.00     0.043 A 
HETATM    6  C   UNL     1       4.443  -0.347  -0.150  1.00  0.00     0.002 A 
HETATM    7  C   UNL     1       3.124  -0.895  -0.036  1.00  0.00    -0.022 A 
HETATM    8  C   UNL     1       5.425   1.894  -0.227  1.00  0.00     0.033 A 
HETATM    9  C   UNL     1       6.694   1.314  -0.353  1.00  0.00     0.039 A 
HETATM   10  C   UNL     1       6.856  -0.070  -0.379  1.00  0.00     0.077 A 
HETATM   11  C   UNL     1       5.732  -0.904  -0.273  1.00  0.00     0.051 A 
ENDROOT
BRANCH   7  12
HETATM   12  C   UNL     1       2.760  -2.349  -0.022  1.00  0.00     0.061 C 
BRANCH  12  13
HETATM   13  C   UNL     1       2.538  -2.896  -1.434  1.00  0.00     0.127 C 
BRANCH  13  14
HETATM   14  N   UNL     1       2.198  -4.307  -1.442  1.00  0.00    -0.360 N 
HETATM   15  C   UNL     1       0.932  -4.745  -1.114  1.00  0.00     0.227 C 
HETATM   16  O   UNL     1       0.053  -4.002  -0.684  1.00  0.00    -0.273 OA
HETATM   17  H   UNL     1       2.735  -4.926  -2.051  1.00  0.00     0.162 HD
BRANCH  15  18
HETATM   18  C   UNL     1       0.715  -6.234  -1.311  1.00  0.00     0.183 C 
BRANCH  18  19
HETATM   19  S   UNL     1       0.186  -6.586  -3.007  1.00  0.00    -0.098 SA
BRANCH  19  20
HETATM   20  C   UNL     1       1.687  -6.642  -3.880  1.00  0.00     0.134 A 
HETATM   21  N   UNL     1       2.880  -6.319  -3.364  1.00  0.00    -0.149 NA
HETATM   22  N   UNL     1       3.689  -6.548  -4.420  1.00  0.00    -0.196 N 
HETATM   23  H   UNL     1       4.695  -6.407  -4.355  1.00  0.00     0.213 HD
HETATM   24  N   UNL     1       3.129  -6.964  -5.568  1.00  0.00    -0.167 NA
HETATM   25  C   UNL     1       1.838  -7.026  -5.222  1.00  0.00     0.180 A 
ENDBRANCH  19  20
ENDBRANCH  18  19
ENDBRANCH  15  18
ENDBRANCH  13  14
ENDBRANCH  12  13
ENDBRANCH   7  12
BRANCH  10  26
HETATM   26  O   UNL     1       8.039  -0.746  -0.501  1.00  0.00    -0.270 OA
BRANCH  26  27
HETATM   27  C   UNL     1       9.233   0.005  -0.675  1.00  0.00     0.447 C 
HETATM   28 CL   UNL     1      10.600  -1.100  -0.852  1.00  0.00    -0.014 Cl
HETATM   29  F   UNL     1       9.133   0.786  -1.779  1.00  0.00    -0.159 F 
HETATM   30  F   UNL     1       9.433   0.812   0.397  1.00  0.00    -0.159 F 
ENDBRANCH  26  27
ENDBRANCH  10  26
TORSDOF 8
