REMARK  7 active torsions:
REMARK  status: ('A' for Active; 'I' for Inactive)
REMARK    1  A    between atoms: C_2  and  O_3 
REMARK    2  A    between atoms: O_3  and  C_4 
REMARK    3  A    between atoms: C_4  and  C_5 
REMARK    4  A    between atoms: C_8  and  N_9 
REMARK    5  A    between atoms: C_12  and  N_13 
REMARK    6  A    between atoms: C_17  and  O_18 
REMARK    7  A    between atoms: C_17  and  C_19 
ROOT
HETATM    1  N   UNL     1       6.608   1.940  -2.865  1.00  0.00    -0.251 N 
HETATM    2  C   UNL     1       7.033   3.249  -2.855  1.00  0.00     0.262 C 
HETATM    3  O   UNL     1       7.450   3.955  -1.949  1.00  0.00    -0.270 OA
HETATM    4  C   UNL     1       6.929   3.770  -4.269  1.00  0.00     0.289 C 
HETATM    5  C   UNL     1       7.002   2.522  -5.111  1.00  0.00     0.146 C 
HETATM    6  C   UNL     1       6.485   1.481  -4.162  1.00  0.00     0.233 C 
HETATM    7  O   UNL     1       6.047   0.420  -4.579  1.00  0.00    -0.273 OA
ENDROOT
BRANCH   4   8
HETATM    8  N   UNL     1       7.948   4.861  -4.651  1.00  0.00    -0.058 N 
HETATM    9  H   UNL     1       7.832   5.576  -3.911  1.00  0.00     0.281 HD
HETATM   10  C   UNL     1       9.403   4.451  -4.553  1.00  0.00     0.239 C 
HETATM   11  C   UNL     1      10.314   5.596  -4.968  1.00  0.00     0.071 C 
HETATM   12  C   UNL     1       9.990   6.109  -6.386  1.00  0.00     0.088 C 
HETATM   13  C   UNL     1       8.540   6.625  -6.312  1.00  0.00     0.071 C 
HETATM   14  C   UNL     1       7.569   5.514  -5.960  1.00  0.00     0.239 C 
BRANCH  12  15
HETATM   15  O   UNL     1      10.818   7.249  -6.612  1.00  0.00    -0.385 OA
HETATM   16  H   UNL     1      11.353   7.115  -7.416  1.00  0.00     0.211 HD
ENDBRANCH  12  15
BRANCH  12  17
HETATM   17  C   UNL     1      10.246   5.100  -7.514  1.00  0.00    -0.024 A 
HETATM   18  C   UNL     1       9.526   5.153  -8.724  1.00  0.00     0.011 A 
HETATM   19  C   UNL     1       9.719   4.202  -9.733  1.00  0.00     0.020 A 
HETATM   20  C   UNL     1      10.663   3.198  -9.565  1.00  0.00     0.011 A 
HETATM   21 BR   UNL     1      10.909   1.900 -10.914  1.00  0.00    -0.051 Br
HETATM   22  C   UNL     1      11.436   3.156  -8.412  1.00  0.00     0.020 A 
HETATM   23  C   UNL     1      11.239   4.108  -7.404  1.00  0.00     0.011 A 
ENDBRANCH  12  17
ENDBRANCH   4   8
BRANCH   1  24
HETATM   24  C   UNL     1       6.267   1.182  -1.704  1.00  0.00     0.045 A 
HETATM   25  C   UNL     1       6.050   1.803  -0.463  1.00  0.00     0.031 A 
HETATM   26  C   UNL     1       5.585   1.076   0.644  1.00  0.00     0.020 A 
HETATM   27  C   UNL     1       5.339  -0.296   0.543  1.00  0.00     0.039 A 
HETATM   28  C   UNL     1       5.614  -0.939  -0.664  1.00  0.00     0.020 A 
HETATM   29  C   UNL     1       6.071  -0.207  -1.769  1.00  0.00     0.031 A 
BRANCH  27  30
HETATM   30  C   UNL     1       4.740  -1.002   1.708  1.00  0.00     0.293 C 
HETATM   31  O   UNL     1       4.468  -0.444   2.758  1.00  0.00    -0.259 OA
BRANCH  30  32
HETATM   32  O   UNL     1       4.492  -2.296   1.392  1.00  0.00    -0.318 OA
BRANCH  32  33
HETATM   33  C   UNL     1       3.755  -3.056   2.362  1.00  0.00     0.174 C 
HETATM   34  C   UNL     1       2.275  -2.979   2.035  1.00  0.00     0.034 C 
ENDBRANCH  32  33
ENDBRANCH  30  32
ENDBRANCH  27  30
ENDBRANCH   1  24
TORSDOF 7
