REMARK  8 active torsions:
REMARK  status: ('A' for Active; 'I' for Inactive)
REMARK    1  A    between atoms: N_4  and  C_5 
REMARK    2  A    between atoms: C_5  and  C_6 
REMARK    3  A    between atoms: C_6  and  C_7 
REMARK    4  A    between atoms: C_7  and  N_8 
REMARK       I    between atoms: N_8  and  C_9 
REMARK       I    between atoms: C_9  and  N_10 
REMARK    5  A    between atoms: N_10  and  N_11 
REMARK       I    between atoms: N_11  and  C_12 
REMARK    6  A    between atoms: C_12  and  C_13 
REMARK    7  A    between atoms: C_13  and  O_14 
REMARK    8  A    between atoms: O_14  and  C_15 
ROOT
HETATM    1  N   UNL     1       6.238  -0.448  -1.770  1.00  0.00    -0.341 N 
HETATM    2  C   UNL     1       5.598  -1.587  -1.344  1.00  0.00     0.334 C 
HETATM    3  N   UNL     1       4.798  -2.117  -2.338  1.00  0.00    -0.249 N 
HETATM    4  O   UNL     1       5.757  -2.094  -0.242  1.00  0.00    -0.246 OA
HETATM    5  H   UNL     1       5.777   0.110  -2.474  1.00  0.00     0.164 HD
HETATM    6  H   UNL     1       4.984  -1.858  -3.300  1.00  0.00     0.192 HD
ENDROOT
BRANCH   1   7
HETATM    7  C   UNL     1       7.301   0.178  -1.009  1.00  0.00     0.130 C 
BRANCH   7   8
HETATM    8  C   UNL     1       6.825   1.233   0.004  1.00  0.00     0.019 C 
HETATM    9  C   UNL     1       6.093   0.606   1.193  1.00  0.00     0.013 C 
BRANCH   8  10
HETATM   10  C   UNL     1       8.030   2.039   0.528  1.00  0.00     0.156 C 
BRANCH  10  11
HETATM   11  N   UNL     1       8.550   2.987  -0.446  1.00  0.00    -0.274 N 
HETATM   12  N   UNL     1       7.801   4.068  -0.737  1.00  0.00    -0.177 NA
HETATM   13  C   UNL     1       8.544   4.765  -1.601  1.00  0.00     0.053 A 
HETATM   14  C   UNL     1       8.065   6.065  -2.128  1.00  0.00     0.072 C 
HETATM   15  C   UNL     1       9.762   4.110  -1.880  1.00  0.00     0.055 A 
HETATM   16  C   UNL     1       9.744   2.957  -1.120  1.00  0.00     0.028 A 
HETATM   17  C   UNL     1      10.762   1.888  -0.986  1.00  0.00     0.070 C 
ENDBRANCH  10  11
ENDBRANCH   8  10
ENDBRANCH   7   8
ENDBRANCH   1   7
BRANCH   3  18
HETATM   18  N   UNL     1       4.145  -3.335  -2.129  1.00  0.00    -0.264 N 
HETATM   19  C   UNL     1       4.763  -4.561  -2.033  1.00  0.00     0.260 C 
HETATM   20  O   UNL     1       4.077  -5.551  -1.760  1.00  0.00    -0.269 OA
HETATM   21  H   UNL     1       3.186  -3.297  -1.796  1.00  0.00     0.190 HD
BRANCH  19  22
HETATM   22  C   UNL     1       6.263  -4.673  -2.293  1.00  0.00     0.280 C 
BRANCH  22  23
HETATM   23  O   UNL     1       6.907  -4.952  -1.051  1.00  0.00    -0.342 OA
BRANCH  23  24
HETATM   24  C   UNL     1       8.188  -4.488  -0.975  1.00  0.00     0.069 A 
HETATM   25  C   UNL     1       8.524  -3.780   0.180  1.00  0.00     0.038 A 
HETATM   26  C   UNL     1       9.816  -3.281   0.346  1.00  0.00     0.022 A 
HETATM   27  C   UNL     1      10.773  -3.515  -0.639  1.00  0.00     0.011 A 
HETATM   28 BR   UNL     1      12.522  -2.832  -0.424  1.00  0.00    -0.051 Br
HETATM   29  C   UNL     1      10.451  -4.251  -1.780  1.00  0.00     0.022 A 
HETATM   30  C   UNL     1       9.154  -4.744  -1.947  1.00  0.00     0.038 A 
ENDBRANCH  23  24
ENDBRANCH  22  23
ENDBRANCH  19  22
ENDBRANCH   3  18
TORSDOF 8
