REMARK  5 active torsions:
REMARK  status: ('A' for Active; 'I' for Inactive)
REMARK    1  A    between atoms: C_4  and  N_5 
REMARK    2  A    between atoms: C_8  and  C_9 
REMARK    3  A    between atoms: C_9  and  N_10 
REMARK       I    between atoms: N_10  and  C_11 
REMARK       I    between atoms: C_11  and  N_12 
REMARK    4  A    between atoms: N_12  and  C_13 
REMARK    5  A    between atoms: C_13  and  C_14 
ROOT
HETATM    1  N   UNL     1       5.177   2.486  -0.337  1.00  0.00    -0.319 N 
HETATM    2  C   UNL     1       4.590   3.748  -0.209  1.00  0.00     0.021 A 
HETATM    3  C   UNL     1       3.169   3.964   0.209  1.00  0.00     0.069 C 
HETATM    4  C   UNL     1       5.557   4.718  -0.466  1.00  0.00    -0.016 A 
HETATM    5  C   UNL     1       6.764   4.028  -0.729  1.00  0.00     0.035 A 
HETATM    6  C   UNL     1       6.517   2.671  -0.670  1.00  0.00     0.014 A 
HETATM    7  C   UNL     1       7.469   1.577  -1.019  1.00  0.00     0.068 C 
ENDROOT
BRANCH   4   8
HETATM    8  C   UNL     1       5.389   6.207  -0.481  1.00  0.00     0.165 C 
BRANCH   8   9
HETATM    9  N   UNL     1       5.041   6.651   0.848  1.00  0.00    -0.339 N 
HETATM   10  C   UNL     1       4.085   7.613   1.023  1.00  0.00     0.316 C 
HETATM   11  N   UNL     1       3.680   7.684   2.328  1.00  0.00    -0.339 N 
HETATM   12  O   UNL     1       3.607   8.285   0.121  1.00  0.00    -0.247 OA
HETATM   13  H   UNL     1       4.367   7.455   3.029  1.00  0.00     0.164 HD
HETATM   14  H   UNL     1       5.165   5.985   1.595  1.00  0.00     0.164 HD
BRANCH  11  15
HETATM   15  C   UNL     1       2.620   8.588   2.715  1.00  0.00     0.162 C 
BRANCH  15  16
HETATM   16  C   UNL     1       1.943   8.143   3.987  1.00  0.00    -0.040 A 
HETATM   17  C   UNL     1       1.605   9.080   4.973  1.00  0.00     0.009 A 
HETATM   18  C   UNL     1       0.935   8.681   6.132  1.00  0.00     0.001 A 
HETATM   19  C   UNL     1       0.589   7.343   6.314  1.00  0.00     0.000 A 
HETATM   20  C   UNL     1       0.906   6.403   5.336  1.00  0.00     0.001 A 
HETATM   21  C   UNL     1       1.571   6.802   4.175  1.00  0.00     0.009 A 
ENDBRANCH  15  16
ENDBRANCH  11  15
ENDBRANCH   8   9
ENDBRANCH   4   8
BRANCH   1  22
HETATM   22  C   UNL     1       4.523   1.228  -0.157  1.00  0.00     0.040 A 
HETATM   23  C   UNL     1       3.244   1.015  -0.689  1.00  0.00     0.036 A 
HETATM   24  C   UNL     1       2.579  -0.203  -0.485  1.00  0.00    -0.060 A 
HETATM   25  C   UNL     1       1.217  -0.432  -1.071  1.00  0.00     0.048 C 
HETATM   26  C   UNL     1       3.226  -1.222   0.223  1.00  0.00     0.007 A 
HETATM   27  C   UNL     1       4.504  -1.019   0.743  1.00  0.00     0.003 A 
HETATM   28  C   UNL     1       5.151   0.204   0.559  1.00  0.00     0.030 A 
ENDBRANCH   1  22
TORSDOF 5
