REMARK  7 active torsions:
REMARK  status: ('A' for Active; 'I' for Inactive)
REMARK    1  A    between atoms: C_3  and  C_4 
REMARK    2  A    between atoms: C_9  and  N_10 
REMARK       I    between atoms: N_10  and  C_11 
REMARK       I    between atoms: C_11  and  N_15 
REMARK    3  A    between atoms: N_15  and  CA_16 
REMARK    4  A    between atoms: CA_16  and  C_17 
REMARK    5  A    between atoms: CA_16  and  CB_19 
REMARK    6  A    between atoms: C_17  and  O_18 
REMARK    7  A    between atoms: CB_19  and  CG_20 
ROOT
HETATM    1  N   UNK A   0       5.862  -4.249   0.774  1.00  0.00    -0.309 N 
HETATM    2  C   UNK A   0       4.864  -3.346   0.567  1.00  0.00     0.321 C 
HETATM    3  O   UNK A   0       5.152  -2.173   0.341  1.00  0.00    -0.247 OA
HETATM    4  H   UNK A   0       6.762  -3.830   0.570  1.00  0.00     0.170 HD
ATOM      5  N   TRP A   1       3.587  -3.805   0.587  1.00  0.00    -0.336 N 
ATOM      6  H   TRP A   1       3.492  -4.723   0.172  1.00  0.00     0.164 HD
ENDROOT
BRANCH   5   7
ATOM      7  CA  TRP A   1       2.445  -2.925   0.289  1.00  0.00     0.114 C 
BRANCH   7   8
ATOM      8  C   TRP A   1       2.248  -2.865  -1.238  1.00  0.00     0.189 C 
BRANCH   8   9
ATOM      9  O   TRP A   1       2.010  -4.179  -1.751  1.00  0.00    -0.399 OA
ATOM     10  H   TRP A   1       1.962  -4.093  -2.719  1.00  0.00     0.209 HD
ENDBRANCH   8   9
ENDBRANCH   7   8
BRANCH   7  11
ATOM     11  CB  TRP A   1       1.182  -3.451   1.005  1.00  0.00     0.068 C 
BRANCH  11  12
ATOM     12  CG  TRP A   1       0.654  -2.552   2.092  1.00  0.00    -0.028 A 
ATOM     13  CD2 TRP A   1       1.373  -1.928   3.168  1.00  0.00    -0.002 A 
ATOM     14  CE2 TRP A   1       0.449  -1.205   3.926  1.00  0.00     0.042 A 
ATOM     15  CE3 TRP A   1       2.725  -1.898   3.572  1.00  0.00     0.014 A 
ATOM     16  CZ2 TRP A   1       0.808  -0.454   5.053  1.00  0.00     0.030 A 
ATOM     17  NE1 TRP A   1      -0.784  -1.395   3.352  1.00  0.00    -0.365 N 
ATOM     18  CH2 TRP A   1       2.156  -0.431   5.417  1.00  0.00     0.002 A 
ATOM     19  CZ3 TRP A   1       3.103  -1.143   4.688  1.00  0.00     0.001 A 
ATOM     20  HE1 TRP A   1      -1.645  -0.997   3.701  1.00  0.00     0.165 HD
ATOM     21  CD1 TRP A   1      -0.675  -2.199   2.251  1.00  0.00     0.096 A 
ENDBRANCH  11  12
ENDBRANCH   7  11
ENDBRANCH   5   7
BRANCH   1  22
HETATM   22  C   UNK A   0       5.879  -5.582   1.224  1.00  0.00     0.036 A 
HETATM   23  C   UNK A   0       4.802  -6.235   1.820  1.00  0.00     0.030 A 
HETATM   24  C   UNK A   0       4.910  -7.577   2.209  1.00  0.00     0.018 A 
HETATM   25  C   UNK A   0       6.111  -8.279   2.036  1.00  0.00     0.015 A 
HETATM   26  C   UNK A   0       7.226  -7.619   1.489  1.00  0.00    -0.046 A 
HETATM   27  C   UNK A   0       8.555  -8.298   1.296  1.00  0.00     0.049 C 
HETATM   28  C   UNK A   0       7.089  -6.277   1.086  1.00  0.00     0.037 A 
BRANCH  25  29
HETATM   29  C   UNK A   0       6.170  -9.721   2.421  1.00  0.00     0.156 C 
HETATM   30  C   UNK A   0       5.371 -10.180   3.613  1.00  0.00     0.097 C 
HETATM   31  O   UNK A   0       6.831 -10.516   1.757  1.00  0.00    -0.293 OA
ENDBRANCH  25  29
ENDBRANCH   1  22
TORSDOF 7
