REMARK  7 active torsions:
REMARK  status: ('A' for Active; 'I' for Inactive)
REMARK    1  A    between atoms: C_2  and  C_3 
REMARK    2  A    between atoms: C_3  and  C_4 
REMARK    3  A    between atoms: C_7  and  C_8 
REMARK    4  A    between atoms: C_14  and  C_15 
REMARK    5  A    between atoms: C_16  and  O_17 
REMARK    6  A    between atoms: O_17  and  C_18 
REMARK       I    between atoms: C_18  and  N_19 
REMARK    7  A    between atoms: C_33  and  N_34 
ROOT
HETATM    1  C   UNL     1       0.814   4.633   3.831  1.00  0.00     0.099 A 
HETATM    2  N   UNL     1       1.062   5.874   3.363  1.00  0.00    -0.172 NA
HETATM    3  N   UNL     1       0.313   6.690   4.126  1.00  0.00    -0.256 N 
HETATM    4  H   UNL     1       0.324   7.685   3.935  1.00  0.00     0.191 HD
HETATM    5  C   UNL     1      -0.387   6.023   5.075  1.00  0.00     0.175 A 
HETATM    6  C   UNL     1      -0.068   4.696   4.945  1.00  0.00     0.040 A 
HETATM    7  C   UNL     1      -0.670   3.702   5.878  1.00  0.00     0.109 A 
HETATM    8  C   UNL     1      -1.725   4.370   6.765  1.00  0.00     0.081 A 
HETATM    9  C   UNL     1      -2.530   3.497   7.553  1.00  0.00     0.100 C 
HETATM   10  N   UNL     1      -3.191   2.772   8.174  1.00  0.00    -0.191 NA
HETATM   11  C   UNL     1      -1.947   5.713   6.768  1.00  0.00     0.140 A 
HETATM   12  O   UNL     1      -1.219   6.588   5.941  1.00  0.00    -0.279 OA
ENDROOT
BRANCH   7  13
HETATM   13  C   UNL     1       0.469   3.099   6.693  1.00  0.00    -0.010 A 
HETATM   14  C   UNL     1       0.564   1.704   6.873  1.00  0.00     0.088 A 
HETATM   15  C   UNL     1       1.550   1.143   7.688  1.00  0.00     0.038 A 
HETATM   16  C   UNL     1       2.480   1.967   8.320  1.00  0.00     0.003 A 
HETATM   17  C   UNL     1       2.410   3.347   8.159  1.00  0.00     0.001 A 
HETATM   18  C   UNL     1       1.409   3.909   7.365  1.00  0.00     0.011 A 
BRANCH  14  19
HETATM   19  O   UNL     1      -0.449   0.913   6.267  1.00  0.00    -0.261 OA
BRANCH  19  20
HETATM   20  C   UNL     1      -0.362  -0.452   5.972  1.00  0.00     0.368 C 
HETATM   21  N   UNL     1      -1.552  -0.957   5.468  1.00  0.00    -0.324 N 
HETATM   22  C   UNL     1      -2.801  -0.194   5.474  1.00  0.00     0.154 C 
HETATM   23  C   UNL     1      -1.718  -2.408   5.412  1.00  0.00     0.154 C 
HETATM   24  C   UNL     1      -3.765  -0.700   4.397  1.00  0.00     0.187 C 
HETATM   25  O   UNL     1      -3.973  -2.115   4.508  1.00  0.00    -0.388 OA
HETATM   26  C   UNL     1      -2.733  -2.820   4.345  1.00  0.00     0.187 C 
HETATM   27  O   UNL     1       0.645  -1.134   6.125  1.00  0.00    -0.238 OA
ENDBRANCH  19  20
ENDBRANCH  14  19
ENDBRANCH   7  13
BRANCH  11  28
HETATM   28  N   UNL     1      -2.883   6.366   7.538  1.00  0.00    -0.282 NA
HETATM   29  H   UNL     1      -3.153   5.891   8.396  1.00  0.00     0.126 HD
HETATM   30  H   UNL     1      -2.642   7.343   7.686  1.00  0.00     0.126 HD
ENDBRANCH  11  28
BRANCH   1  31
HETATM   31  C   UNL     1       1.428   3.462   3.205  1.00  0.00    -0.005 A 
HETATM   32  C   UNL     1       2.756   3.521   2.763  1.00  0.00     0.014 A 
HETATM   33  C   UNL     1       3.353   2.418   2.147  1.00  0.00     0.008 A 
HETATM   34  C   UNL     1       2.632   1.233   1.960  1.00  0.00    -0.058 A 
HETATM   35  C   UNL     1       1.303   1.173   2.398  1.00  0.00     0.008 A 
HETATM   36  C   UNL     1       0.705   2.280   3.008  1.00  0.00     0.014 A 
BRANCH  34  37
HETATM   37  C   UNL     1       3.271   0.040   1.290  1.00  0.00     0.042 C 
BRANCH  37  38
HETATM   38  C   UNL     1       3.646  -1.092   2.265  1.00  0.00    -0.019 C 
HETATM   39  C   UNL     1       4.780  -0.683   3.209  1.00  0.00     0.010 C 
HETATM   40  C   UNL     1       4.055  -2.338   1.477  1.00  0.00     0.010 C 
ENDBRANCH  37  38
ENDBRANCH  34  37
ENDBRANCH   1  31
TORSDOF 7
