REMARK  5 active torsions:
REMARK  status: ('A' for Active; 'I' for Inactive)
REMARK    1  A    between atoms: C_5  and  C_6 
REMARK    2  A    between atoms: C_9  and  O_10 
REMARK    3  A    between atoms: N_14  and  C_15 
REMARK    4  A    between atoms: C_15  and  C_16 
REMARK       I    between atoms: C_16  and  N_17 
REMARK    5  A    between atoms: N_17  and  C_18 
ROOT
HETATM    1  C   UNL     1       1.752  -0.018  -0.689  1.00  0.00     0.156 C 
HETATM    2  N   UNL     1       3.189  -0.015  -0.551  1.00  0.00    -0.346 N 
HETATM    3  C   UNL     1       3.979   1.082  -0.507  1.00  0.00     0.113 A 
HETATM    4  C   UNL     1       5.287   0.702  -0.389  1.00  0.00     0.014 A 
HETATM    5  C   UNL     1       6.170   1.894  -0.324  1.00  0.00     0.158 A 
HETATM    6  N   UNL     1       5.147   2.974  -0.324  1.00  0.00    -0.325 N 
HETATM    7  C   UNL     1       3.835   2.498  -0.461  1.00  0.00     0.272 A 
HETATM    8  O   UNL     1       2.805   3.150  -0.440  1.00  0.00    -0.266 OA
HETATM    9  C   UNL     1       5.330  -0.699  -0.288  1.00  0.00     0.002 A 
HETATM   10  C   UNL     1       3.994  -1.138  -0.391  1.00  0.00     0.045 A 
HETATM   11  C   UNL     1       6.352  -1.647  -0.102  1.00  0.00     0.014 A 
HETATM   12  C   UNL     1       6.022  -3.003  -0.015  1.00  0.00     0.001 A 
HETATM   13  C   UNL     1       4.697  -3.420  -0.117  1.00  0.00     0.002 A 
HETATM   14  C   UNL     1       3.662  -2.500  -0.309  1.00  0.00     0.030 A 
ENDROOT
BRANCH   6  15
HETATM   15  C   UNL     1       5.396   4.211   0.389  1.00  0.00     0.229 C 
BRANCH  15  16
HETATM   16  C   UNL     1       6.318   5.189  -0.324  1.00  0.00     0.235 C 
HETATM   17  N   UNL     1       5.859   5.617  -1.552  1.00  0.00    -0.355 N 
HETATM   18  H   UNL     1       4.959   5.268  -1.865  1.00  0.00     0.162 HD
HETATM   19  O   UNL     1       7.322   5.642   0.222  1.00  0.00    -0.272 OA
BRANCH  17  20
HETATM   20  C   UNL     1       6.420   6.795  -2.175  1.00  0.00     0.084 C 
HETATM   21  C   UNL     1       6.007   6.964  -3.631  1.00  0.00     0.025 C 
HETATM   22  C   UNL     1       6.309   8.432  -3.894  1.00  0.00     0.002 C 
HETATM   23  C   UNL     1       5.886   9.143  -2.614  1.00  0.00     0.002 C 
HETATM   24  C   UNL     1       5.939   8.090  -1.507  1.00  0.00     0.025 C 
ENDBRANCH  17  20
ENDBRANCH  15  16
ENDBRANCH   6  15
BRANCH   5  25
HETATM   25  C   UNL     1       7.069   1.926  -1.545  1.00  0.00    -0.030 A 
HETATM   26  C   UNL     1       6.729   1.373  -2.792  1.00  0.00     0.012 A 
HETATM   27  C   UNL     1       7.614   1.427  -3.873  1.00  0.00     0.037 A 
HETATM   28  C   UNL     1       8.849   2.061  -3.753  1.00  0.00     0.068 A 
HETATM   29  C   UNL     1       9.190   2.647  -2.537  1.00  0.00     0.037 A 
HETATM   30  C   UNL     1       8.311   2.578  -1.447  1.00  0.00     0.012 A 
BRANCH  28  31
HETATM   31  O   UNL     1       9.616   2.037  -4.885  1.00  0.00    -0.356 OA
HETATM   32  C   UNL     1      10.875   2.693  -4.823  1.00  0.00     0.210 C 
ENDBRANCH  28  31
ENDBRANCH   5  25
TORSDOF 5
