REMARK  5 active torsions:
REMARK  status: ('A' for Active; 'I' for Inactive)
REMARK    1  A    between atoms: C_2  and  C_3 
REMARK       I    between atoms: C_3  and  N_4 
REMARK    2  A    between atoms: N_4  and  N_5 
REMARK       I    between atoms: N_5  and  C_6 
REMARK       I    between atoms: C_6  and  N_7 
REMARK    3  A    between atoms: N_7  and  C_8 
REMARK    4  A    between atoms: C_18  and  N_19 
REMARK       I    between atoms: N_19  and  C_20 
REMARK       I    between atoms: C_20  and  N_21 
REMARK    5  A    between atoms: N_21  and  C_22 
ROOT
HETATM    1  C   UNL     1      -0.422   1.140   0.488  1.00  0.00     0.019 A 
HETATM    2  C   UNL     1       0.910   1.031   0.075  1.00  0.00     0.033 A 
HETATM    3  C   UNL     1       1.471  -0.239  -0.093  1.00  0.00     0.019 A 
HETATM    4  C   UNL     1       0.696  -1.387   0.134  1.00  0.00     0.030 A 
HETATM    5  C   UNL     1      -0.643  -1.277   0.517  1.00  0.00     0.036 A 
HETATM    6  C   UNL     1      -1.191  -0.004   0.707  1.00  0.00     0.030 A 
ENDROOT
BRANCH   2   7
HETATM    7  C   UNL     1       1.645   2.288  -0.234  1.00  0.00     0.270 C 
HETATM    8  N   UNL     1       3.030   2.234  -0.231  1.00  0.00    -0.262 N 
HETATM    9  H   UNL     1       3.499   1.533   0.336  1.00  0.00     0.190 HD
HETATM   10  O   UNL     1       1.024   3.327  -0.449  1.00  0.00    -0.266 OA
BRANCH   8  11
HETATM   11  N   UNL     1       3.675   3.480  -0.318  1.00  0.00    -0.249 N 
HETATM   12  C   UNL     1       5.037   3.635  -0.348  1.00  0.00     0.335 C 
HETATM   13  N   UNL     1       5.717   2.467  -0.553  1.00  0.00    -0.337 N 
HETATM   14  O   UNL     1       5.540   4.737  -0.188  1.00  0.00    -0.246 OA
HETATM   15  H   UNL     1       5.162   1.808  -1.081  1.00  0.00     0.164 HD
HETATM   16  H   UNL     1       3.098   4.309  -0.182  1.00  0.00     0.192 HD
BRANCH  13  17
HETATM   17  C   UNL     1       7.167   2.317  -0.676  1.00  0.00     0.086 C 
HETATM   18  C   UNL     1       7.735   2.886  -1.983  1.00  0.00     0.025 C 
HETATM   19  C   UNL     1       8.193   4.337  -1.903  1.00  0.00     0.002 C 
HETATM   20  C   UNL     1       9.116   4.574  -0.715  1.00  0.00     0.000 C 
HETATM   21  C   UNL     1       8.468   4.163   0.600  1.00  0.00     0.002 C 
HETATM   22  C   UNL     1       7.958   2.724   0.577  1.00  0.00     0.025 C 
ENDBRANCH  13  17
ENDBRANCH   8  11
ENDBRANCH   2   7
BRANCH   5  23
HETATM   23  N   UNL     1      -1.518  -2.372   0.649  1.00  0.00    -0.309 N 
HETATM   24  C   UNL     1      -1.213  -3.715   0.561  1.00  0.00     0.321 C 
HETATM   25  N   UNL     1      -2.368  -4.455   0.396  1.00  0.00    -0.338 N 
HETATM   26  O   UNL     1      -0.092  -4.201   0.572  1.00  0.00    -0.247 OA
HETATM   27  H   UNL     1      -3.198  -4.042   0.789  1.00  0.00     0.164 HD
HETATM   28  H   UNL     1      -2.488  -2.148   0.797  1.00  0.00     0.170 HD
BRANCH  25  29
HETATM   29  C   UNL     1      -2.397  -5.914   0.267  1.00  0.00     0.086 C 
HETATM   30  C   UNL     1      -3.847  -6.365   0.012  1.00  0.00     0.025 C 
HETATM   31  C   UNL     1      -4.343  -5.952  -1.377  1.00  0.00     0.002 C 
HETATM   32  C   UNL     1      -3.418  -6.452  -2.483  1.00  0.00     0.000 C 
HETATM   33  C   UNL     1      -1.966  -6.050  -2.240  1.00  0.00     0.002 C 
HETATM   34  C   UNL     1      -1.496  -6.469  -0.849  1.00  0.00     0.025 C 
ENDBRANCH  25  29
ENDBRANCH   5  23
TORSDOF 5
