REMARK  6 active torsions:
REMARK  status: ('A' for Active; 'I' for Inactive)
REMARK    1  A    between atoms: C_2  and  N_3 
REMARK    2  A    between atoms: C_2  and  C_11 
REMARK       I    between atoms: N_3  and  C_4 
REMARK    3  A    between atoms: C_4  and  C_5 
REMARK    4  A    between atoms: C_14  and  O_15 
REMARK    5  A    between atoms: O_15  and  C_16 
REMARK    6  A    between atoms: C_16  and  C_17 
ROOT
HETATM    1  C   UNL     1       2.811  -1.085   1.009  1.00  0.00    -0.036 A 
HETATM    2  C   UNL     1       3.597  -0.628   2.077  1.00  0.00     0.012 A 
HETATM    3  C   UNL     1       4.013  -1.500   3.091  1.00  0.00     0.037 A 
HETATM    4  C   UNL     1       3.637  -2.841   3.058  1.00  0.00     0.069 A 
HETATM    5  C   UNL     1       2.865  -3.308   1.994  1.00  0.00     0.037 A 
HETATM    6  C   UNL     1       2.448  -2.440   0.983  1.00  0.00     0.012 A 
ENDROOT
BRANCH   1   7
HETATM    7  C   UNL     1       2.339  -0.116  -0.061  1.00  0.00     0.113 C 
HETATM    8  C   UNL     1       2.703  -0.600  -1.469  1.00  0.00     0.037 C 
BRANCH   7   9
HETATM    9  N   UNL     1       0.908   0.101   0.088  1.00  0.00    -0.352 N 
HETATM   10  C   UNL     1       0.257   1.134  -0.535  1.00  0.00     0.225 C 
HETATM   11  O   UNL     1       0.778   1.924  -1.309  1.00  0.00    -0.273 OA
HETATM   12  H   UNL     1       0.416  -0.457   0.773  1.00  0.00     0.163 HD
BRANCH  10  13
HETATM   13  C   UNL     1      -1.181   1.227  -0.200  1.00  0.00     0.119 A 
HETATM   14  C   UNL     1      -1.666   2.255   0.787  1.00  0.00     0.126 A 
HETATM   15 CL   UNL     1      -2.959   1.770   1.886  1.00  0.00    -0.101 Cl
HETATM   16 CL   UNL     1      -0.560   3.418   1.499  1.00  0.00    -0.101 Cl
HETATM   17  C   UNL     1      -2.008   2.404  -0.666  1.00  0.00     0.060 A 
ENDBRANCH  10  13
ENDBRANCH   7   9
ENDBRANCH   1   7
BRANCH   4  18
HETATM   18  O   UNL     1       3.964  -3.791   3.985  1.00  0.00    -0.347 OA
BRANCH  18  19
HETATM   19  C   UNL     1       4.453  -3.324   5.242  1.00  0.00     0.215 C 
BRANCH  19  20
HETATM   20  C   UNL     1       4.457  -4.448   6.245  1.00  0.00    -0.017 A 
HETATM   21  C   UNL     1       3.506  -5.465   6.212  1.00  0.00     0.125 A 
HETATM   22  N   UNL     1       3.428  -6.467   7.118  1.00  0.00    -0.272 NA
HETATM   23  C   UNL     1       4.338  -6.456   8.114  1.00  0.00     0.116 A 
HETATM   24  C   UNL     1       5.317  -5.486   8.249  1.00  0.00     0.020 A 
HETATM   25  C   UNL     1       5.371  -4.466   7.303  1.00  0.00     0.012 A 
ENDBRANCH  19  20
ENDBRANCH  18  19
ENDBRANCH   4  18
TORSDOF 6
