REMARK  2 active torsions:
REMARK  status: ('A' for Active; 'I' for Inactive)
REMARK    1  A    between atoms: C_6  and  N_7 
REMARK    2  A    between atoms: N_7  and  C_8 
ROOT
HETATM    1  C   UNL     1       1.126   0.091   0.052  1.00  0.00     0.093 C 
HETATM    2  C   UNL     1       2.623   0.057   0.071  1.00  0.00     0.125 A 
HETATM    3  N   UNL     1       3.266   1.209  -0.110  1.00  0.00    -0.226 NA
HETATM    4  C   UNL     1       4.600   1.074  -0.103  1.00  0.00     0.114 A 
HETATM    5  C   UNL     1       5.324  -0.102   0.059  1.00  0.00     0.053 A 
HETATM    6  C   UNL     1       4.547  -1.271   0.274  1.00  0.00     0.143 A 
HETATM    7  N   UNL     1       3.197  -1.142   0.259  1.00  0.00    -0.215 NA
HETATM    8  S   UNL     1       5.581   2.451  -0.297  1.00  0.00    -0.073 SA
HETATM    9  C   UNL     1       6.999   1.531  -0.176  1.00  0.00    -0.008 A 
HETATM   10  C   UNL     1       6.751   0.176  -0.027  1.00  0.00    -0.028 A 
HETATM   11  C   UNL     1       7.887  -0.805   0.071  1.00  0.00     0.041 C 
HETATM   12  C   UNL     1       9.239  -0.195  -0.332  1.00  0.00     0.005 C 
HETATM   13  C   UNL     1       9.430   1.209   0.251  1.00  0.00     0.005 C 
HETATM   14  C   UNL     1       8.351   2.170  -0.263  1.00  0.00     0.047 C 
ENDROOT
BRANCH   6  15
HETATM   15  N   UNL     1       5.128  -2.532   0.483  1.00  0.00    -0.340 N 
HETATM   16  H   UNL     1       6.132  -2.529   0.432  1.00  0.00     0.167 HD
BRANCH  15  17
HETATM   17  C   UNL     1       4.598  -3.770   0.897  1.00  0.00     0.036 A 
HETATM   18  C   UNL     1       5.422  -4.907   0.801  1.00  0.00     0.069 A 
HETATM   19  C   UNL     1       4.915  -6.134   1.177  1.00  0.00     0.107 A 
HETATM   20  C   UNL     1       3.629  -6.277   1.633  1.00  0.00     0.105 A 
HETATM   21  O   UNL     1       5.590  -7.315   1.148  1.00  0.00    -0.323 OA
HETATM   22  O   UNL     1       3.329  -7.563   1.952  1.00  0.00    -0.323 OA
HETATM   23  C   UNL     1       2.781  -5.200   1.731  1.00  0.00     0.042 A 
HETATM   24  C   UNL     1       4.576  -8.217   1.641  1.00  0.00     0.352 A 
HETATM   25  C   UNL     1       3.274  -3.943   1.352  1.00  0.00     0.032 A 
ENDBRANCH  15  17
ENDBRANCH   6  15
TORSDOF 2
