REMARK  9 active torsions:
REMARK  status: ('A' for Active; 'I' for Inactive)
REMARK    1  A    between atoms: C_2  and  O_3 
REMARK    2  A    between atoms: O_3  and  C_4 
REMARK    3  A    between atoms: C_5  and  O_6 
REMARK    4  A    between atoms: C_9  and  C_10 
REMARK    5  A    between atoms: C_10  and  N_11 
REMARK    6  A    between atoms: C_13  and  C_14 
REMARK       I    between atoms: C_14  and  N_15 
REMARK    7  A    between atoms: N_15  and  C_16 
REMARK    8  A    between atoms: C_28  and  S_29 
REMARK    9  A    between atoms: S_29  and  C_30 
ROOT
HETATM    1  N   UNL     1       5.782  -3.494  -2.671  1.00  0.00    -0.053 N 
HETATM    2  H   UNL     1       5.571  -3.276  -1.688  1.00  0.00     0.281 HD
HETATM    3  C   UNL     1       6.003  -5.014  -2.715  1.00  0.00     0.281 C 
HETATM    4  C   UNL     1       5.672  -5.381  -4.148  1.00  0.00     0.060 C 
HETATM    5  C   UNL     1       4.556  -4.410  -4.561  1.00  0.00     0.082 C 
HETATM    6  C   UNL     1       4.537  -3.291  -3.503  1.00  0.00     0.252 C 
ENDROOT
BRANCH   3   7
HETATM    7  C   UNL     1       7.332  -5.489  -2.107  1.00  0.00     0.253 C 
HETATM    8  N   UNL     1       7.746  -6.754  -2.476  1.00  0.00    -0.325 N 
HETATM    9  H   UNL     1       7.240  -7.250  -3.201  1.00  0.00     0.169 HD
HETATM   10  O   UNL     1       7.895  -4.758  -1.295  1.00  0.00    -0.271 OA
BRANCH   8  11
HETATM   11  C   UNL     1       8.824  -7.483  -1.911  1.00  0.00     0.037 A 
HETATM   12  C   UNL     1       9.571  -7.042  -0.812  1.00  0.00     0.062 A 
HETATM   13  C   UNL     1      10.597  -7.848  -0.269  1.00  0.00     0.077 A 
HETATM   14  C   UNL     1      10.866  -9.083  -0.855  1.00  0.00     0.035 A 
HETATM   15  N   UNL     1      11.377  -7.529   0.828  1.00  0.00    -0.245 NA
HETATM   16  S   UNL     1      12.150  -9.841   0.005  1.00  0.00    -0.073 SA
HETATM   17  C   UNL     1      10.143  -9.543  -1.965  1.00  0.00     0.023 A 
HETATM   18  C   UNL     1      12.221  -8.505   1.081  1.00  0.00     0.072 A 
HETATM   19  C   UNL     1      13.198  -8.491   2.204  1.00  0.00     0.079 C 
HETATM   20  C   UNL     1       9.119  -8.729  -2.473  1.00  0.00     0.031 A 
ENDBRANCH   8  11
ENDBRANCH   3   7
BRANCH   1  21
HETATM   21  C   UNL     1       6.929  -2.552  -3.002  1.00  0.00     0.274 C 
BRANCH  21  22
HETATM   22  C   UNL     1       7.437  -2.553  -4.420  1.00  0.00    -0.030 A 
HETATM   23  C   UNL     1       6.873  -1.680  -5.369  1.00  0.00     0.012 A 
HETATM   24  C   UNL     1       7.322  -1.677  -6.687  1.00  0.00     0.040 A 
HETATM   25  C   UNL     1       8.335  -2.546  -7.060  1.00  0.00     0.099 A 
HETATM   26  C   UNL     1       8.920  -3.423  -6.144  1.00  0.00     0.102 A 
HETATM   27  C   UNL     1       8.487  -3.405  -4.816  1.00  0.00     0.048 A 
BRANCH  25  28
HETATM   28  O   UNL     1       8.750  -2.522  -8.363  1.00  0.00    -0.358 OA
HETATM   29  H   UNL     1       9.505  -3.141  -8.414  1.00  0.00     0.218 HD
ENDBRANCH  25  28
BRANCH  26  30
HETATM   30  O   UNL     1       9.898  -4.228  -6.661  1.00  0.00    -0.349 OA
BRANCH  30  31
HETATM   31  C   UNL     1      10.250  -5.388  -5.908  1.00  0.00     0.171 C 
HETATM   32  C   UNL     1      11.085  -6.283  -6.805  1.00  0.00     0.034 C 
ENDBRANCH  30  31
ENDBRANCH  26  30
ENDBRANCH  21  22
ENDBRANCH   1  21
BRANCH   5  33
HETATM   33  S   UNL     1       2.954  -5.296  -4.623  1.00  0.00    -0.104 SA
BRANCH  33  34
HETATM   34  C   UNL     1       1.902  -4.013  -5.287  1.00  0.00     0.093 A 
HETATM   35  N   UNL     1       2.416  -2.763  -5.367  1.00  0.00    -0.254 NA
HETATM   36  C   UNL     1       1.607  -1.802  -5.874  1.00  0.00     0.118 A 
HETATM   37  C   UNL     1       0.303  -2.025  -6.281  1.00  0.00     0.019 A 
HETATM   38  C   UNL     1      -0.206  -3.312  -6.169  1.00  0.00     0.004 A 
HETATM   39  C   UNL     1       0.604  -4.327  -5.667  1.00  0.00     0.039 A 
ENDBRANCH  33  34
ENDBRANCH   5  33
TORSDOF 9
