REMARK  4 active torsions:
REMARK  status: ('A' for Active; 'I' for Inactive)
REMARK    1  A    between atoms: C_5  and  N_6 
REMARK    2  A    between atoms: N_9  and  C_11 
REMARK    3  A    between atoms: C_11  and  C_12 
REMARK    4  A    between atoms: C_13  and  O_14 
ROOT
HETATM    1  N   UNL     1       6.902   0.194  -0.473  1.00  0.00    -0.363 N 
HETATM    2  C   UNL     1       7.615  -1.063  -0.210  1.00  0.00     0.152 C 
HETATM    3  C   UNL     1       8.248  -1.159   1.193  1.00  0.00     0.255 C 
HETATM    4  N   UNL     1       9.408  -0.174   1.292  1.00  0.00    -0.066 N 
HETATM    5  H   UNL     1       9.713  -0.003   0.328  1.00  0.00     0.280 HD
HETATM    6  C   UNL     1       9.031   1.177   1.839  1.00  0.00     0.237 C 
HETATM    7  C   UNL     1       7.789   1.794   1.201  1.00  0.00     0.047 C 
HETATM    8  C   UNL     1       7.576   1.481  -0.278  1.00  0.00     0.126 C 
ENDROOT
BRANCH   4   9
HETATM    9  C   UNL     1      10.661  -0.748   1.931  1.00  0.00     0.276 C 
BRANCH   9  10
HETATM   10  C   UNL     1      10.636  -0.978   3.417  1.00  0.00     0.002 A 
HETATM   11  C   UNL     1      11.114  -0.003   4.305  1.00  0.00     0.091 A 
HETATM   12  C   UNL     1      11.136  -0.232   5.685  1.00  0.00     0.044 A 
HETATM   13 BR   UNL     1      11.790   1.089   6.874  1.00  0.00    -0.048 Br
HETATM   14  C   UNL     1      10.676  -1.441   6.198  1.00  0.00     0.022 A 
HETATM   15  C   UNL     1      10.194  -2.419   5.330  1.00  0.00     0.002 A 
HETATM   16  C   UNL     1      10.173  -2.191   3.950  1.00  0.00     0.012 A 
BRANCH  11  17
HETATM   17  O   UNL     1      11.561   1.182   3.779  1.00  0.00    -0.359 OA
HETATM   18  H   UNL     1      11.945   1.698   4.518  1.00  0.00     0.218 HD
ENDBRANCH  11  17
ENDBRANCH   9  10
ENDBRANCH   4   9
BRANCH   1  19
HETATM   19  C   UNL     1       5.537   0.151  -0.137  1.00  0.00     0.147 A 
HETATM   20  N   UNL     1       5.090  -0.763   0.750  1.00  0.00    -0.132 NA
HETATM   21  N   UNL     1       3.756  -0.852   1.076  1.00  0.00    -0.153 NA
HETATM   22  C   UNL     1       2.864  -0.025   0.496  1.00  0.00     0.053 A 
HETATM   23  C   UNL     1       1.418  -0.192   0.841  1.00  0.00     0.072 C 
HETATM   24  C   UNL     1       3.275   0.931  -0.415  1.00  0.00     0.032 A 
HETATM   25  C   UNL     1       4.629   1.019  -0.730  1.00  0.00     0.054 A 
ENDBRANCH   1  19
TORSDOF 4
