REMARK  5 active torsions:
REMARK  status: ('A' for Active; 'I' for Inactive)
REMARK    1  A    between atoms: C_2  and  C_3 
REMARK    2  A    between atoms: C_8  and  N_9 
REMARK       I    between atoms: N_9  and  C_10 
REMARK       I    between atoms: C_10  and  N_11 
REMARK    3  A    between atoms: N_11  and  C_12 
REMARK    4  A    between atoms: C_12  and  C_13 
REMARK    5  A    between atoms: C_13  and  C_14 
ROOT
HETATM    1  N   UNL     1       6.089  -2.938   0.563  1.00  0.00    -0.305 N 
HETATM    2  C   UNL     1       5.480  -1.864  -0.042  1.00  0.00     0.320 C 
HETATM    3  N   UNL     1       4.195  -1.692   0.425  1.00  0.00    -0.342 N 
HETATM    4  O   UNL     1       5.989  -1.117  -0.865  1.00  0.00    -0.247 OA
HETATM    5  H   UNL     1       5.725  -3.191   1.469  1.00  0.00     0.171 HD
HETATM    6  H   UNL     1       3.733  -2.498   0.819  1.00  0.00     0.164 HD
ENDROOT
BRANCH   3   7
HETATM    7  C   UNL     1       3.330  -0.641  -0.093  1.00  0.00     0.138 C 
BRANCH   7   8
HETATM    8  C   UNL     1       2.488  -1.046  -1.334  1.00  0.00     0.003 C 
HETATM    9  C   UNL     1       1.740   0.203  -1.877  1.00  0.00     0.016 C 
HETATM   10  C   UNL     1       1.364  -0.150  -3.315  1.00  0.00     0.001 C 
HETATM   11  C   UNL     1       2.410  -1.163  -3.772  1.00  0.00     0.001 C 
HETATM   12  C   UNL     1       3.358  -1.332  -2.585  1.00  0.00     0.016 C 
BRANCH   8  13
HETATM   13  C   UNL     1       1.547  -2.210  -0.955  1.00  0.00    -0.048 A 
HETATM   14  C   UNL     1       0.269  -1.979  -0.413  1.00  0.00     0.008 A 
HETATM   15  C   UNL     1      -0.575  -3.037  -0.060  1.00  0.00     0.001 A 
HETATM   16  C   UNL     1      -0.154  -4.352  -0.217  1.00  0.00     0.000 A 
HETATM   17  C   UNL     1       1.115  -4.609  -0.722  1.00  0.00     0.001 A 
HETATM   18  C   UNL     1       1.955  -3.552  -1.083  1.00  0.00     0.008 A 
ENDBRANCH   8  13
ENDBRANCH   7   8
ENDBRANCH   3   7
BRANCH   1  19
HETATM   19  C   UNL     1       7.329  -3.457   0.215  1.00  0.00     0.095 A 
HETATM   20  C   UNL     1       8.076  -4.270   1.044  1.00  0.00     0.107 A 
HETATM   21  O   UNL     1       9.233  -4.612   0.421  1.00  0.00    -0.215 OA
HETATM   22  N   UNL     1       9.263  -4.058  -0.838  1.00  0.00    -0.131 NA
HETATM   23  C   UNL     1       8.119  -3.371  -0.970  1.00  0.00     0.087 A 
HETATM   24  C   UNL     1       7.845  -2.711  -2.269  1.00  0.00     0.075 C 
BRANCH  20  25
HETATM   25  C   UNL     1       7.913  -4.806   2.416  1.00  0.00     0.065 C 
HETATM   26  C   UNL     1       7.564  -6.286   2.403  1.00  0.00     0.012 C 
ENDBRANCH  20  25
ENDBRANCH   1  19
TORSDOF 5
