REMARK  3 active torsions:
REMARK  status: ('A' for Active; 'I' for Inactive)
REMARK    1  A    between atoms: O_2  and  C_3 
REMARK    2  A    between atoms: C_7  and  C_8 
REMARK       I    between atoms: C_8  and  N_9 
REMARK    3  A    between atoms: C_15  and  C_16 
ROOT
HETATM    1  C   UNL     1       6.255   1.840   2.425  1.00  0.00     0.254 C 
HETATM    2  N   UNL     1       6.969   3.008   2.705  1.00  0.00    -0.342 N 
HETATM    3  C   UNL     1       6.641   4.305   2.055  1.00  0.00     0.187 C 
HETATM    4  C   UNL     1       7.376   5.412   2.730  1.00  0.00     0.077 A 
HETATM    5  C   UNL     1       8.380   5.229   3.646  1.00  0.00     0.039 A 
HETATM    6  N   UNL     1       8.796   6.474   4.000  1.00  0.00    -0.342 N 
HETATM    7  H   UNL     1       9.527   6.715   4.658  1.00  0.00     0.167 HD
HETATM    8  C   UNL     1       8.022   7.386   3.305  1.00  0.00     0.141 A 
HETATM    9  N   UNL     1       7.156   6.749   2.528  1.00  0.00    -0.231 NA
HETATM   10  C   UNL     1       8.853   3.920   4.138  1.00  0.00     0.079 C 
HETATM   11  C   UNL     1       8.369   2.824   3.161  1.00  0.00     0.132 C 
HETATM   12  O   UNL     1       6.698   0.710   2.620  1.00  0.00    -0.267 OA
ENDROOT
BRANCH   1  13
HETATM   13  C   UNL     1       4.896   1.931   1.857  1.00  0.00     0.037 A 
HETATM   14  C   UNL     1       3.877   2.598   2.532  1.00  0.00     0.036 A 
HETATM   15  C   UNL     1       2.623   2.593   1.952  1.00  0.00     0.120 A 
HETATM   16  N   UNL     1       2.334   1.967   0.790  1.00  0.00    -0.237 NA
HETATM   17  C   UNL     1       3.340   1.297   0.185  1.00  0.00     0.164 A 
HETATM   18  C   UNL     1       4.630   1.248   0.675  1.00  0.00     0.075 A 
BRANCH  17  19
HETATM   19  O   UNL     1       3.109   0.613  -0.991  1.00  0.00    -0.339 OA
HETATM   20  C   UNL     1       1.743   0.632  -1.391  1.00  0.00     0.211 C 
ENDBRANCH  17  19
ENDBRANCH   1  13
BRANCH   8  21
HETATM   21  C   UNL     1       8.154   8.840   3.443  1.00  0.00     0.049 A 
HETATM   22  C   UNL     1       9.196   9.434   4.170  1.00  0.00     0.133 A 
HETATM   23  F   UNL     1      10.124   8.672   4.773  1.00  0.00    -0.205 F 
HETATM   24  C   UNL     1       9.305  10.816   4.294  1.00  0.00     0.085 A 
HETATM   25  C   UNL     1       8.356  11.623   3.685  1.00  0.00     0.119 A 
HETATM   26  F   UNL     1       8.449  12.953   3.801  1.00  0.00    -0.206 F 
HETATM   27  C   UNL     1       7.308  11.071   2.956  1.00  0.00     0.043 A 
HETATM   28  C   UNL     1       7.210   9.682   2.833  1.00  0.00     0.021 A 
ENDBRANCH   8  21
TORSDOF 3
