REMARK  10 active torsions:
REMARK  status: ('A' for Active; 'I' for Inactive)
REMARK    1  A    between atoms: C_2  and  C_3 
REMARK    2  A    between atoms: C_4  and  O_5 
REMARK    3  A    between atoms: C_6  and  C_7 
REMARK    4  A    between atoms: C_12  and  C_13 
REMARK    5  A    between atoms: N_14  and  N_15 
REMARK       I    between atoms: N_15  and  C_16 
REMARK    6  A    between atoms: C_16  and  C_17 
REMARK    7  A    between atoms: N_20  and  C_21 
REMARK    8  A    between atoms: C_25  and  N_26 
REMARK    9  A    between atoms: C_27  and  C_28 
REMARK   10  A    between atoms: C_28  and  N_29 
ROOT
HETATM    1  N   UNL     1       6.056   2.016  -6.047  1.00  0.00    -0.145 NA
HETATM    2  C   UNL     1       7.419   1.748  -6.034  1.00  0.00     0.273 C 
HETATM    3  O   UNL     1       8.137   2.116  -6.969  1.00  0.00    -0.270 OA
HETATM    4  H   UNL     1       5.841   2.605  -6.851  1.00  0.00     0.158 HD
ENDROOT
BRANCH   1   5
HETATM    5  N   UNL     1       5.458   2.509  -4.912  1.00  0.00    -0.205 NA
HETATM    6  C   UNL     1       4.654   1.664  -4.342  1.00  0.00     0.144 C 
BRANCH   6   7
HETATM    7  C   UNL     1       3.903   1.997  -3.116  1.00  0.00    -0.016 A 
HETATM    8  C   UNL     1       3.691   3.325  -2.749  1.00  0.00     0.023 A 
HETATM    9  C   UNL     1       2.958   3.648  -1.594  1.00  0.00    -0.016 A 
HETATM   10  C   UNL     1       2.487   2.561  -0.809  1.00  0.00     0.079 A 
HETATM   11  C   UNL     1       2.722   1.197  -1.130  1.00  0.00    -0.016 A 
HETATM   12  C   UNL     1       3.414   0.952  -2.330  1.00  0.00     0.023 A 
BRANCH   9  13
HETATM   13  C   UNL     1       2.680   5.127  -1.222  1.00  0.00    -0.021 C 
HETATM   14  C   UNL     1       3.358   5.477   0.121  1.00  0.00     0.019 C 
HETATM   15  C   UNL     1       3.227   6.143  -2.261  1.00  0.00     0.019 C 
HETATM   16  C   UNL     1       1.160   5.398  -1.133  1.00  0.00     0.019 C 
ENDBRANCH   9  13
BRANCH  10  17
HETATM   17  O   UNL     1       1.779   2.888   0.314  1.00  0.00    -0.360 OA
HETATM   18  H   UNL     1       0.999   2.315   0.361  1.00  0.00     0.217 HD
ENDBRANCH  10  17
BRANCH  11  19
HETATM   19  C   UNL     1       2.279   0.005  -0.241  1.00  0.00    -0.021 C 
HETATM   20  C   UNL     1       0.770  -0.252  -0.433  1.00  0.00     0.019 C 
HETATM   21  C   UNL     1       2.590   0.241   1.257  1.00  0.00     0.019 C 
HETATM   22  C   UNL     1       3.002  -1.325  -0.597  1.00  0.00     0.019 C 
ENDBRANCH  11  19
ENDBRANCH   6   7
ENDBRANCH   1   5
BRANCH   2  23
HETATM   23  C   UNL     1       7.993   0.994  -4.917  1.00  0.00     0.170 C 
HETATM   24  N   UNL     1       7.259   0.437  -3.911  1.00  0.00    -0.124 NA
HETATM   25  N   UNL     1       8.072  -0.225  -3.111  1.00  0.00    -0.058 NA
HETATM   26  N   UNL     1       9.324  -0.198  -3.629  1.00  0.00    -0.191 N 
HETATM   27  C   UNL     1       9.337   0.677  -4.723  1.00  0.00     0.101 C 
BRANCH  26  28
HETATM   28  C   UNL     1      10.368  -0.996  -3.098  1.00  0.00     0.229 A 
HETATM   29  N   UNL     1      11.547  -1.066  -3.719  1.00  0.00    -0.081 NA
HETATM   30  O   UNL     1      12.285  -1.956  -2.935  1.00  0.00    -0.103 OA
HETATM   31  N   UNL     1      11.542  -2.405  -1.852  1.00  0.00    -0.083 NA
HETATM   32  C   UNL     1      10.353  -1.816  -1.955  1.00  0.00     0.201 A 
BRANCH  32  33
HETATM   33  N   UNL     1       9.341  -1.986  -1.089  1.00  0.00    -0.379 N 
HETATM   34  H   UNL     1       9.412  -2.689  -0.358  1.00  0.00     0.158 HD
HETATM   35  H   UNL     1       8.399  -1.637  -1.254  1.00  0.00     0.158 HD
ENDBRANCH  32  33
ENDBRANCH  26  28
BRANCH  27  36
HETATM   36  C   UNL     1      10.569   1.012  -5.484  1.00  0.00     0.295 C 
BRANCH  36  37
HETATM   37  N   UNL     1      10.588   2.373  -6.139  1.00  0.00    -0.073 N 
HETATM   38  H   UNL     1       9.706   2.454  -6.683  1.00  0.00     0.279 HD
HETATM   39  C   UNL     1      10.623   3.511  -5.162  1.00  0.00     0.269 C 
HETATM   40  C   UNL     1      11.688   2.488  -7.156  1.00  0.00     0.269 C 
ENDBRANCH  36  37
ENDBRANCH  27  36
ENDBRANCH   2  23
TORSDOF 10
