REMARK  5 active torsions:
REMARK  status: ('A' for Active; 'I' for Inactive)
REMARK    1  A    between atoms: C_2  and  N_3 
REMARK    2  A    between atoms: N_3  and  C_6 
REMARK    3  A    between atoms: C_6  and  C_7 
REMARK    4  A    between atoms: C_8  and  N_9 
REMARK       I    between atoms: N_9  and  C_10 
REMARK    5  A    between atoms: C_10  and  C_11 
ROOT
HETATM    1  N   UNL     1       6.125   0.425   3.520  1.00  0.00    -0.326 N 
HETATM    2  C   UNL     1       7.049   0.913   4.438  1.00  0.00     0.231 C 
HETATM    3  O   UNL     1       7.747   0.222   5.174  1.00  0.00    -0.272 OA
HETATM    4  H   UNL     1       5.642   1.137   2.995  1.00  0.00     0.169 HD
ENDROOT
BRANCH   1   5
HETATM    5  C   UNL     1       5.712  -0.916   3.330  1.00  0.00     0.042 A 
HETATM    6  C   UNL     1       4.901  -1.242   2.216  1.00  0.00    -0.006 A 
HETATM    7  C   UNL     1       4.468  -2.573   2.043  1.00  0.00     0.011 A 
HETATM    8  C   UNL     1       4.827  -3.566   2.950  1.00  0.00     0.001 A 
HETATM    9  C   UNL     1       5.632  -3.247   4.034  1.00  0.00     0.002 A 
HETATM   10  C   UNL     1       6.071  -1.934   4.221  1.00  0.00     0.030 A 
BRANCH   6  11
HETATM   11  C   UNL     1       4.550  -0.251   1.139  1.00  0.00     0.273 C 
BRANCH  11  12
HETATM   12  N   UNL     1       5.717   0.006   0.242  1.00  0.00    -0.072 N 
HETATM   13  H   UNL     1       6.030  -0.898  -0.140  1.00  0.00     0.277 HD
HETATM   14  H   UNL     1       6.509   0.342   0.810  1.00  0.00     0.277 HD
BRANCH  12  15
HETATM   15  C   UNL     1       5.451   0.964  -0.867  1.00  0.00     0.228 C 
HETATM   16  C   UNL     1       6.697   1.093  -1.719  1.00  0.00     0.034 C 
ENDBRANCH  12  15
ENDBRANCH  11  12
ENDBRANCH   6  11
ENDBRANCH   1   5
BRANCH   2  17
HETATM   17  C   UNL     1       7.293   2.426   4.369  1.00  0.00     0.122 C 
HETATM   18  C   UNL     1       6.092   3.250   3.956  1.00  0.00    -0.028 A 
HETATM   19  C   UNL     1       6.095   3.650   2.614  1.00  0.00     0.007 A 
HETATM   20  C   UNL     1       5.014   3.564   4.776  1.00  0.00     0.009 A 
HETATM   21  C   UNL     1       5.042   4.368   2.073  1.00  0.00     0.019 A 
HETATM   22  S   UNL     1       7.524   3.065   1.753  1.00  0.00    -0.128 SA
HETATM   23  C   UNL     1       3.963   4.691   2.897  1.00  0.00     0.001 A 
HETATM   24  C   UNL     1       3.948   4.289   4.239  1.00  0.00     0.001 A 
HETATM   25  C   UNL     1       8.387   2.710   3.327  1.00  0.00     0.098 C 
ENDBRANCH   2  17
TORSDOF 5
