REMARK  4 active torsions:
REMARK  status: ('A' for Active; 'I' for Inactive)
REMARK    1  A    between atoms: C_5  and  C_6 
REMARK    2  A    between atoms: C_6  and  N_7 
REMARK    3  A    between atoms: C_6  and  C_18 
REMARK    4  A    between atoms: N_7  and  C_8 
ROOT
HETATM    1  C   UNL     1       1.182   2.366  -0.137  1.00  0.00     0.290 C 
ENDROOT
BRANCH   1   2
HETATM    2  C   UNL     1       2.095   2.978   0.917  1.00  0.00     0.021 A 
HETATM    3  C   UNL     1       3.006   2.225   1.678  1.00  0.00     0.055 A 
HETATM    4  C   UNL     1       3.832   2.846   2.614  1.00  0.00     0.117 A 
HETATM    5  C   UNL     1       3.779   4.218   2.823  1.00  0.00     0.045 A 
HETATM    6  F   UNL     1       4.694   2.101   3.316  1.00  0.00    -0.206 F 
HETATM    7  C   UNL     1       2.888   4.984   2.076  1.00  0.00     0.046 A 
HETATM    8  C   UNL     1       2.066   4.365   1.134  1.00  0.00     0.125 A 
HETATM    9  F   UNL     1       1.239   5.135   0.413  1.00  0.00    -0.205 F 
ENDBRANCH   1   2
BRANCH   1  10
HETATM   10  N   UNL     1       1.877   2.141  -1.433  1.00  0.00     0.101 NA
HETATM   11  H   UNL     1       2.129   3.070  -1.780  1.00  0.00     0.317 HD
BRANCH  10  12
HETATM   12  C   UNL     1       3.041   1.251  -1.496  1.00  0.00     0.225 C 
HETATM   13  C   UNL     1       2.728  -0.222  -1.152  1.00  0.00     0.069 C 
HETATM   14  C   UNL     1       3.957  -1.082  -1.378  1.00  0.00     0.190 C 
HETATM   15  N   UNL     1       4.357  -0.970  -2.823  1.00  0.00    -0.067 N 
HETATM   16  C   UNL     1       3.788  -2.580  -1.231  1.00  0.00     0.035 C 
HETATM   17  H   UNL     1       3.529  -1.193  -3.396  1.00  0.00     0.280 HD
HETATM   18  C   UNL     1       4.786   0.413  -3.183  1.00  0.00     0.237 C 
HETATM   19  C   UNL     1       5.338  -2.088  -3.059  1.00  0.00     0.235 C 
HETATM   20  C   UNL     1       3.609   1.354  -2.935  1.00  0.00     0.063 C 
HETATM   21  C   UNL     1       4.991  -3.130  -1.994  1.00  0.00     0.030 C 
ENDBRANCH  10  12
ENDBRANCH   1  10
BRANCH   1  22
HETATM   22  C   UNL     1       0.262   1.213   0.271  1.00  0.00    -0.018 A 
HETATM   23  C   UNL     1       0.084   0.787   1.593  1.00  0.00     0.029 A 
HETATM   24  C   UNL     1      -0.783  -0.265   1.855  1.00  0.00     0.116 A 
HETATM   25  N   UNL     1      -1.497  -0.905   0.907  1.00  0.00    -0.273 NA
HETATM   26  C   UNL     1      -1.380  -0.444  -0.352  1.00  0.00     0.116 A 
HETATM   27  C   UNL     1      -0.535   0.595  -0.709  1.00  0.00     0.029 A 
ENDBRANCH   1  22
TORSDOF 4
