REMARK  6 active torsions:
REMARK  status: ('A' for Active; 'I' for Inactive)
REMARK    1  A    between atoms: O_2  and  C_3 
REMARK    2  A    between atoms: C_5  and  C_6 
REMARK    3  A    between atoms: C_12  and  C_13 
REMARK       I    between atoms: C_13  and  N_14 
REMARK    4  A    between atoms: N_14  and  C_15 
REMARK    5  A    between atoms: C_17  and  O_18 
REMARK    6  A    between atoms: C_23  and  C_24 
ROOT
HETATM    1  C   UNL     1       5.141  -0.667  -4.467  1.00  0.00     0.118 C 
HETATM    2  N   UNL     1       4.827  -1.696  -5.482  1.00  0.00    -0.365 N 
HETATM    3  C   UNL     1       4.858  -1.339  -6.801  1.00  0.00     0.138 A 
HETATM    4  N   UNL     1       4.856  -0.015  -7.177  1.00  0.00    -0.240 N 
HETATM    5  N   UNL     1       4.957   0.168  -8.500  1.00  0.00    -0.181 NA
HETATM    6  C   UNL     1       4.938  -1.076  -8.987  1.00  0.00     0.160 A 
HETATM    7  C   UNL     1       4.879  -2.068  -7.976  1.00  0.00     0.096 A 
HETATM    8  C   UNL     1       4.776   1.103  -6.254  1.00  0.00     0.221 C 
HETATM    9  C   UNL     1       4.368   0.605  -4.851  1.00  0.00     0.066 C 
HETATM   10  H   UNL     1       4.058  -2.303  -5.188  1.00  0.00     0.161 HD
ENDROOT
BRANCH   7  11
HETATM   11  C   UNL     1       4.877  -3.508  -8.187  1.00  0.00     0.261 C 
HETATM   12  N   UNL     1       5.067  -4.238  -7.030  1.00  0.00    -0.323 N 
HETATM   13  H   UNL     1       5.276  -3.686  -6.204  1.00  0.00     0.169 HD
HETATM   14  O   UNL     1       4.720  -3.969  -9.311  1.00  0.00    -0.267 OA
BRANCH  12  15
HETATM   15  C   UNL     1       5.018  -5.636  -6.866  1.00  0.00     0.037 A 
HETATM   16  C   UNL     1       4.773  -6.533  -7.908  1.00  0.00     0.066 A 
HETATM   17  C   UNL     1       4.718  -7.902  -7.646  1.00  0.00     0.067 A 
HETATM   18  C   UNL     1       4.896  -8.395  -6.361  1.00  0.00     0.036 A 
HETATM   19  C   UNL     1       5.145  -7.508  -5.317  1.00  0.00     0.005 A 
HETATM   20  C   UNL     1       5.209  -6.134  -5.570  1.00  0.00     0.029 A 
BRANCH  17  21
HETATM   21  O   UNL     1       4.483  -8.803  -8.644  1.00  0.00    -0.361 OA
HETATM   22  H   UNL     1       4.406  -8.318  -9.484  1.00  0.00     0.217 HD
ENDBRANCH  17  21
ENDBRANCH  12  15
ENDBRANCH   7  11
BRANCH   1  23
HETATM   23  C   UNL     1       6.648  -0.476  -4.296  1.00  0.00    -0.033 A 
HETATM   24  C   UNL     1       7.560  -1.467  -4.703  1.00  0.00     0.046 A 
HETATM   25  C   UNL     1       8.940  -1.283  -4.587  1.00  0.00     0.068 A 
HETATM   26  C   UNL     1       9.439  -0.126  -3.997  1.00  0.00     0.037 A 
HETATM   27  C   UNL     1       8.555   0.849  -3.540  1.00  0.00     0.003 A 
HETATM   28  C   UNL     1       7.174   0.673  -3.681  1.00  0.00     0.009 A 
BRANCH  25  29
HETATM   29  O   UNL     1       9.719  -2.315  -5.034  1.00  0.00    -0.356 OA
HETATM   30  C   UNL     1      10.882  -1.898  -5.743  1.00  0.00     0.210 C 
ENDBRANCH  25  29
ENDBRANCH   1  23
BRANCH   8  31
HETATM   31  C   UNL     1       3.785   2.151  -6.715  1.00  0.00     0.409 C 
HETATM   32  F   UNL     1       2.541   1.644  -6.879  1.00  0.00    -0.169 F 
HETATM   33  F   UNL     1       3.680   3.120  -5.763  1.00  0.00    -0.169 F 
HETATM   34  F   UNL     1       4.144   2.782  -7.850  1.00  0.00    -0.169 F 
ENDBRANCH   8  31
TORSDOF 6
