REMARK  6 active torsions:
REMARK  status: ('A' for Active; 'I' for Inactive)
REMARK    1  A    between atoms: C_2  and  O_3 
REMARK    2  A    between atoms: C_2  and  C_4 
REMARK    3  A    between atoms: C_6  and  N_7 
REMARK       I    between atoms: N_7  and  C_8 
REMARK    4  A    between atoms: C_8  and  C_9 
REMARK    5  A    between atoms: C_12  and  C_13 
REMARK    6  A    between atoms: C_18  and  C_19 
ROOT
HETATM    1  C   UNL     1       3.198   3.801  -1.614  1.00  0.00     0.096 A 
HETATM    2  C   UNL     1       3.001   4.792  -0.670  1.00  0.00     0.138 A 
HETATM    3  N   UNL     1       2.959   4.148   0.543  1.00  0.00    -0.240 N 
HETATM    4  C   UNL     1       2.824   4.806   1.828  1.00  0.00     0.221 C 
HETATM    5  C   UNL     1       3.014   6.328   1.678  1.00  0.00     0.066 C 
HETATM    6  C   UNL     1       2.387   6.913   0.400  1.00  0.00     0.118 C 
HETATM    7  N   UNL     1       2.853   6.141  -0.760  1.00  0.00    -0.365 N 
HETATM    8  N   UNL     1       3.116   2.818   0.456  1.00  0.00    -0.181 NA
HETATM    9  C   UNL     1       3.208   2.604  -0.860  1.00  0.00     0.160 A 
HETATM   10  H   UNL     1       2.563   6.552  -1.650  1.00  0.00     0.161 HD
ENDROOT
BRANCH   1  11
HETATM   11  C   UNL     1       3.371   3.922  -3.051  1.00  0.00     0.261 C 
HETATM   12  N   UNL     1       4.041   5.076  -3.414  1.00  0.00    -0.323 N 
HETATM   13  H   UNL     1       4.400   5.627  -2.642  1.00  0.00     0.169 HD
HETATM   14  O   UNL     1       3.001   3.030  -3.805  1.00  0.00    -0.267 OA
BRANCH  12  15
HETATM   15  C   UNL     1       4.418   5.484  -4.707  1.00  0.00     0.035 A 
HETATM   16  C   UNL     1       3.949   4.885  -5.879  1.00  0.00     0.039 A 
HETATM   17  C   UNL     1       4.369   5.338  -7.144  1.00  0.00    -0.028 A 
HETATM   18  C   UNL     1       5.272   6.407  -7.213  1.00  0.00     0.010 A 
HETATM   19  C   UNL     1       5.742   7.012  -6.050  1.00  0.00     0.003 A 
HETATM   20  C   UNL     1       5.309   6.559  -4.804  1.00  0.00     0.029 A 
BRANCH  17  21
HETATM   21  C   UNL     1       3.804   4.697  -8.394  1.00  0.00     0.147 C 
HETATM   22  C   UNL     1       2.536   5.409  -8.852  1.00  0.00     0.044 C 
BRANCH  21  23
HETATM   23  O   UNL     1       4.765   4.738  -9.447  1.00  0.00    -0.391 OA
HETATM   24  H   UNL     1       4.397   4.223 -10.184  1.00  0.00     0.210 HD
ENDBRANCH  21  23
ENDBRANCH  17  21
ENDBRANCH  12  15
ENDBRANCH   1  11
BRANCH   4  25
HETATM   25  C   UNL     1       1.525   4.412   2.500  1.00  0.00     0.409 C 
HETATM   26  F   UNL     1       0.440   4.541   1.716  1.00  0.00    -0.169 F 
HETATM   27  F   UNL     1       1.552   3.137   2.951  1.00  0.00    -0.169 F 
HETATM   28  F   UNL     1       1.319   5.190   3.597  1.00  0.00    -0.169 F 
ENDBRANCH   4  25
BRANCH   6  29
HETATM   29  C   UNL     1       0.878   7.094   0.451  1.00  0.00    -0.035 A 
HETATM   30  C   UNL     1       0.324   7.941   1.431  1.00  0.00     0.009 A 
HETATM   31  C   UNL     1      -1.057   8.129   1.528  1.00  0.00     0.001 A 
HETATM   32  C   UNL     1      -1.912   7.486   0.640  1.00  0.00     0.000 A 
HETATM   33  C   UNL     1      -1.387   6.660  -0.349  1.00  0.00     0.001 A 
HETATM   34  C   UNL     1      -0.006   6.469  -0.446  1.00  0.00     0.009 A 
ENDBRANCH   6  29
TORSDOF 6
