REMARK  4 active torsions:
REMARK  status: ('A' for Active; 'I' for Inactive)
REMARK    1  A    between atoms: S_2  and  N_3 
REMARK    2  A    between atoms: N_3  and  N_4 
REMARK    3  A    between atoms: C_10  and  C_11 
REMARK    4  A    between atoms: C_12  and  O_13 
ROOT
HETATM    1  N   UNL     1       2.713  -0.812   2.726  1.00  0.00    -0.241 N 
HETATM    2  C   UNL     1       1.396  -1.219   2.849  1.00  0.00     0.272 C 
HETATM    3  O   UNL     1       0.951  -2.188   2.236  1.00  0.00    -0.266 OA
HETATM    4  C   UNL     1       0.517  -0.332   3.628  1.00  0.00     0.054 A 
HETATM    5  C   UNL     1       0.979   0.964   3.891  1.00  0.00     0.026 A 
HETATM    6  N   UNL     1       2.279   1.393   3.510  1.00  0.00    -0.265 NA
HETATM    7  C   UNL     1       3.275   0.291   3.513  1.00  0.00     0.219 C 
HETATM    8  C   UNL     1      -0.789  -0.716   3.941  1.00  0.00     0.019 A 
HETATM    9  C   UNL     1      -1.656   0.212   4.515  1.00  0.00     0.001 A 
HETATM   10  C   UNL     1      -1.224   1.520   4.742  1.00  0.00     0.002 A 
HETATM   11  C   UNL     1       0.082   1.898   4.415  1.00  0.00     0.024 A 
HETATM   12  H   UNL     1       2.218   1.731   2.545  1.00  0.00     0.130 HD
ENDROOT
BRANCH   7  13
HETATM   13  C   UNL     1       3.687  -0.087   4.940  1.00  0.00     0.014 A 
HETATM   14  C   UNL     1       3.705   0.835   6.002  1.00  0.00     0.075 A 
HETATM   15  C   UNL     1       4.143   0.481   7.279  1.00  0.00     0.037 A 
HETATM   16  C   UNL     1       4.606  -0.807   7.526  1.00  0.00     0.003 A 
HETATM   17  C   UNL     1       4.634  -1.734   6.492  1.00  0.00     0.001 A 
HETATM   18  C   UNL     1       4.184  -1.377   5.216  1.00  0.00     0.013 A 
BRANCH  14  19
HETATM   19  O   UNL     1       3.303   2.136   5.862  1.00  0.00    -0.360 OA
HETATM   20  H   UNL     1       2.853   2.208   4.995  1.00  0.00     0.217 HD
ENDBRANCH  14  19
ENDBRANCH   7  13
BRANCH   1  21
HETATM   21  N   UNL     1       3.289  -1.046   1.372  1.00  0.00    -0.123 NA
HETATM   22  H   UNL     1       2.636  -1.546   0.751  1.00  0.00     0.165 HD
BRANCH  21  23
HETATM   23  S   UNL     1       4.853  -1.684   1.224  1.00  0.00     0.222 S 
HETATM   24  C   UNL     1       4.555  -3.401   1.594  1.00  0.00     0.181 C 
HETATM   25  O   UNL     1       5.684  -1.120   2.263  1.00  0.00    -0.210 OA
HETATM   26  O   UNL     1       5.211  -1.584  -0.173  1.00  0.00    -0.210 OA
ENDBRANCH  21  23
ENDBRANCH   1  21
TORSDOF 4
