REMARK  7 active torsions:
REMARK  status: ('A' for Active; 'I' for Inactive)
REMARK    1  A    between atoms: C_2  and  C_3 
REMARK    2  A    between atoms: C_4  and  N_5 
REMARK       I    between atoms: N_5  and  C_6 
REMARK    3  A    between atoms: C_6  and  C_7 
REMARK    4  A    between atoms: C_7  and  N_8 
REMARK    5  A    between atoms: N_12  and  C_13 
REMARK    6  A    between atoms: C_14  and  O_15 
REMARK    7  A    between atoms: C_24  and  C_25 
ROOT
HETATM    1  N   UNL     1       1.387  -2.065   0.443  1.00  0.00    -0.325 N 
HETATM    2  C   UNL     1       1.646  -1.801   1.776  1.00  0.00     0.248 C 
HETATM    3  O   UNL     1       1.219  -2.427   2.745  1.00  0.00    -0.271 OA
HETATM    4  H   UNL     1       1.370  -1.266  -0.179  1.00  0.00     0.169 HD
ENDROOT
BRANCH   2   5
HETATM    5  C   UNL     1       2.549  -0.584   1.994  1.00  0.00     0.337 C 
BRANCH   5   6
HETATM    6  N   UNL     1       2.885  -0.373   3.464  1.00  0.00    -0.060 N 
HETATM    7  H   UNL     1       2.003  -0.523   3.979  1.00  0.00     0.280 HD
HETATM    8  C   UNL     1       3.855  -1.425   4.015  1.00  0.00     0.255 C 
HETATM    9  C   UNL     1       4.081  -1.197   5.523  1.00  0.00     0.150 C 
HETATM   10  N   UNL     1       4.523   0.180   5.790  1.00  0.00    -0.375 N 
HETATM   11  C   UNL     1       3.643   1.238   5.258  1.00  0.00     0.150 C 
HETATM   12  C   UNL     1       3.388   1.033   3.751  1.00  0.00     0.255 C 
BRANCH  10  13
HETATM   13  C   UNL     1       5.875   0.490   5.985  1.00  0.00     0.064 A 
HETATM   14  C   UNL     1       6.284   1.623   6.744  1.00  0.00     0.094 A 
HETATM   15  C   UNL     1       7.646   1.926   6.900  1.00  0.00     0.039 A 
HETATM   16  C   UNL     1       8.623   1.101   6.351  1.00  0.00     0.003 A 
HETATM   17  C   UNL     1       8.249  -0.032   5.645  1.00  0.00     0.002 A 
HETATM   18  C   UNL     1       6.895  -0.332   5.469  1.00  0.00     0.032 A 
BRANCH  14  19
HETATM   19  O   UNL     1       5.284   2.376   7.320  1.00  0.00    -0.354 OA
HETATM   20  C   UNL     1       5.654   3.237   8.392  1.00  0.00     0.210 C 
ENDBRANCH  14  19
ENDBRANCH  10  13
ENDBRANCH   5   6
ENDBRANCH   2   5
BRANCH   1  21
HETATM   21  C   UNL     1       0.578  -3.155   0.038  1.00  0.00     0.048 A 
HETATM   22  C   UNL     1      -0.616  -2.886  -0.686  1.00  0.00    -0.027 A 
HETATM   23  C   UNL     1      -1.391  -3.976  -1.122  1.00  0.00     0.010 A 
HETATM   24  C   UNL     1      -0.994  -5.286  -0.883  1.00  0.00     0.001 A 
HETATM   25  C   UNL     1       0.186  -5.538  -0.194  1.00  0.00     0.010 A 
HETATM   26  C   UNL     1       0.997  -4.489   0.280  1.00  0.00    -0.027 A 
BRANCH  22  27
HETATM   27  C   UNL     1      -1.168  -1.474  -0.888  1.00  0.00     0.013 C 
HETATM   28  C   UNL     1      -2.215  -1.164   0.188  1.00  0.00     0.015 C 
HETATM   29  C   UNL     1      -1.742  -1.224  -2.288  1.00  0.00     0.015 C 
ENDBRANCH  22  27
BRANCH  26  30
HETATM   30  C   UNL     1       2.329  -4.853   0.932  1.00  0.00     0.013 C 
HETATM   31  C   UNL     1       2.153  -5.788   2.134  1.00  0.00     0.015 C 
HETATM   32  C   UNL     1       3.297  -5.460  -0.091  1.00  0.00     0.015 C 
ENDBRANCH  26  30
ENDBRANCH   1  21
TORSDOF 7
