REMARK  11 active torsions:
REMARK  status: ('A' for Active; 'I' for Inactive)
REMARK    1  A    between atoms: C_6  and  C_7 
REMARK    2  A    between atoms: C_7  and  C_8 
REMARK       I    between atoms: C_8  and  N_9 
REMARK    3  A    between atoms: N_9  and  C_10 
REMARK    4  A    between atoms: C_10  and  C_11 
REMARK    5  A    between atoms: C_11  and  N_12 
REMARK    6  A    between atoms: C_17  and  C_18 
REMARK    7  A    between atoms: C_21  and  C_22 
REMARK    8  A    between atoms: C_29  and  C_30 
REMARK    9  A    between atoms: C_30  and  O_31 
REMARK   10  A    between atoms: O_31  and  C_32 
REMARK   11  A    between atoms: C_32  and  C_33 
ROOT
HETATM    1  C   UNL     1       0.463   0.516   1.094  1.00  0.00     0.071 C 
HETATM    2  C   UNL     1       1.951   0.287   1.149  1.00  0.00     0.048 C 
HETATM    3  N   UNL     1       2.621   1.104   2.063  1.00  0.00    -0.229 NA
HETATM    4  C   UNL     1       3.723   0.630   2.542  1.00  0.00     0.170 C 
HETATM    5  N   UNL     1       4.334  -0.706   2.043  1.00  0.00    -0.319 N 
HETATM    6  C   UNL     1       4.788  -1.381   3.039  1.00  0.00     0.011 C 
HETATM    7  C   UNL     1       4.073  -0.891   0.604  1.00  0.00     0.166 C 
HETATM    8  S   UNL     1       4.511   1.160   3.983  1.00  0.00    -0.086 SA
HETATM    9  C   UNL     1       5.118  -0.549   4.269  1.00  0.00     0.135 C 
HETATM   10  C   UNL     1       2.596  -0.690   0.471  1.00  0.00     0.069 C 
ENDROOT
BRANCH   6  11
HETATM   11  C   UNL     1       4.814  -2.880   3.005  1.00  0.00     0.156 C 
BRANCH  11  12
HETATM   12  C   UNL     1       3.950  -3.413   4.134  1.00  0.00     0.223 C 
HETATM   13  N   UNL     1       2.633  -3.647   3.839  1.00  0.00    -0.359 N 
HETATM   14  H   UNL     1       2.317  -3.661   2.865  1.00  0.00     0.162 HD
HETATM   15  O   UNL     1       4.376  -3.473   5.285  1.00  0.00    -0.273 OA
BRANCH  13  16
HETATM   16  C   UNL     1       1.579  -3.711   4.863  1.00  0.00     0.150 C 
BRANCH  16  17
HETATM   17  C   UNL     1       1.656  -4.864   5.894  1.00  0.00     0.253 C 
BRANCH  17  18
HETATM   18  N   UNL     1       2.768  -4.694   6.910  1.00  0.00    -0.077 N 
HETATM   19  H   UNL     1       3.607  -4.372   6.387  1.00  0.00     0.279 HD
HETATM   20  C   UNL     1       2.509  -3.639   7.950  1.00  0.00     0.269 C 
HETATM   21  C   UNL     1       3.149  -5.998   7.555  1.00  0.00     0.269 C 
ENDBRANCH  17  18
ENDBRANCH  16  17
ENDBRANCH  13  16
ENDBRANCH  11  12
ENDBRANCH   6  11
BRANCH   7  22
HETATM   22  C   UNL     1       4.944   0.133  -0.147  1.00  0.00    -0.030 C 
HETATM   23  C   UNL     1       6.324   0.208   0.127  1.00  0.00     0.010 C 
HETATM   24  C   UNL     1       7.054   1.353  -0.202  1.00  0.00     0.008 C 
HETATM   25  C   UNL     1       6.439   2.429  -0.851  1.00  0.00    -0.055 C 
HETATM   26  C   UNL     1       5.121   2.273  -1.293  1.00  0.00     0.008 C 
HETATM   27  C   UNL     1       4.385   1.134  -0.959  1.00  0.00     0.010 C 
BRANCH  25  28
HETATM   28  C   UNL     1       7.166   3.759  -0.980  1.00  0.00     0.010 C 
HETATM   29  C   UNL     1       7.339   4.203  -2.431  1.00  0.00     0.015 C 
HETATM   30  C   UNL     1       6.444   4.839  -0.163  1.00  0.00     0.015 C 
ENDBRANCH  25  28
ENDBRANCH   7  22
BRANCH  10  31
HETATM   31  C   UNL     1       1.910  -1.861  -0.078  1.00  0.00     0.294 C 
HETATM   32  O   UNL     1       1.815  -2.868   0.614  1.00  0.00    -0.259 OA
BRANCH  31  33
HETATM   33  O   UNL     1       1.641  -1.687  -1.379  1.00  0.00    -0.313 OA
BRANCH  33  34
HETATM   34  C   UNL     1       1.126  -2.839  -2.067  1.00  0.00     0.217 C 
BRANCH  34  35
HETATM   35  C   UNL     1      -0.375  -2.794  -2.077  1.00  0.00    -0.034 A 
HETATM   36  C   UNL     1      -1.048  -1.957  -2.978  1.00  0.00     0.009 A 
HETATM   37  C   UNL     1      -2.442  -1.917  -2.998  1.00  0.00     0.001 A 
HETATM   38  C   UNL     1      -3.176  -2.705  -2.114  1.00  0.00     0.000 A 
HETATM   39  C   UNL     1      -2.517  -3.533  -1.207  1.00  0.00     0.001 A 
HETATM   40  C   UNL     1      -1.123  -3.576  -1.185  1.00  0.00     0.009 A 
ENDBRANCH  34  35
ENDBRANCH  33  34
ENDBRANCH  31  33
ENDBRANCH  10  31
TORSDOF 11
