REMARK  6 active torsions:
REMARK  status: ('A' for Active; 'I' for Inactive)
REMARK    1  A    between atoms: C_2  and  N_3 
REMARK    2  A    between atoms: C_2  and  C_11 
REMARK       I    between atoms: N_3  and  C_4 
REMARK    3  A    between atoms: C_4  and  C_5 
REMARK    4  A    between atoms: C_14  and  O_15 
REMARK    5  A    between atoms: O_15  and  C_16 
REMARK    6  A    between atoms: C_16  and  C_17 
ROOT
HETATM    1  C   UNL     1       2.896   1.292   0.578  1.00  0.00    -0.036 A 
HETATM    2  C   UNL     1       2.124   2.412   0.226  1.00  0.00     0.012 A 
HETATM    3  C   UNL     1       2.415   3.683   0.734  1.00  0.00     0.037 A 
HETATM    4  C   UNL     1       3.487   3.857   1.606  1.00  0.00     0.069 A 
HETATM    5  C   UNL     1       4.287   2.760   1.927  1.00  0.00     0.037 A 
HETATM    6  C   UNL     1       3.999   1.488   1.418  1.00  0.00     0.012 A 
ENDROOT
BRANCH   1   7
HETATM    7  C   UNL     1       2.518  -0.061   0.003  1.00  0.00     0.113 C 
HETATM    8  C   UNL     1       2.871  -1.259   0.889  1.00  0.00     0.037 C 
BRANCH   7   9
HETATM    9  N   UNL     1       3.125  -0.211  -1.309  1.00  0.00    -0.352 N 
HETATM   10  C   UNL     1       2.487  -0.875  -2.324  1.00  0.00     0.225 C 
HETATM   11  O   UNL     1       1.346  -1.309  -2.265  1.00  0.00    -0.273 OA
HETATM   12  H   UNL     1       4.089   0.076  -1.416  1.00  0.00     0.163 HD
BRANCH  10  13
HETATM   13  C   UNL     1       3.299  -1.030  -3.548  1.00  0.00     0.119 A 
HETATM   14  C   UNL     1       4.026  -2.322  -3.816  1.00  0.00     0.126 A 
HETATM   15 CL   UNL     1       5.626  -2.209  -4.550  1.00  0.00    -0.101 Cl
HETATM   16 CL   UNL     1       3.863  -3.689  -2.727  1.00  0.00    -0.101 Cl
HETATM   17  C   UNL     1       2.844  -1.948  -4.661  1.00  0.00     0.060 A 
ENDBRANCH  10  13
ENDBRANCH   7   9
ENDBRANCH   1   7
BRANCH   4  18
HETATM   18  O   UNL     1       3.857   5.034   2.196  1.00  0.00    -0.347 OA
BRANCH  18  19
HETATM   19  C   UNL     1       2.910   6.102   2.142  1.00  0.00     0.215 C 
BRANCH  19  20
HETATM   20  C   UNL     1       3.344   7.210   3.062  1.00  0.00    -0.017 A 
HETATM   21  C   UNL     1       4.664   7.647   3.101  1.00  0.00     0.125 A 
HETATM   22  N   UNL     1       5.107   8.663   3.878  1.00  0.00    -0.272 NA
HETATM   23  C   UNL     1       4.191   9.276   4.657  1.00  0.00     0.116 A 
HETATM   24  C   UNL     1       2.851   8.927   4.687  1.00  0.00     0.020 A 
HETATM   25  C   UNL     1       2.423   7.883   3.873  1.00  0.00     0.012 A 
ENDBRANCH  19  20
ENDBRANCH  18  19
ENDBRANCH   4  18
TORSDOF 6
