REMARK  4 active torsions:
REMARK  status: ('A' for Active; 'I' for Inactive)
REMARK    1  A    between atoms: C_5  and  N_6 
REMARK       I    between atoms: N_6  and  C_7 
REMARK    2  A    between atoms: C_7  and  C_8 
REMARK    3  A    between atoms: C_12  and  O_13 
REMARK    4  A    between atoms: C_19  and  C_20 
ROOT
HETATM    1  C   UNL     1       0.972  -0.087   0.318  1.00  0.00     0.015 C 
HETATM    2  C   UNL     1       2.487  -0.060   0.041  1.00  0.00    -0.040 C 
HETATM    3  C   UNL     1       2.691  -0.068  -1.487  1.00  0.00     0.015 C 
HETATM    4  C   UNL     1       3.143  -1.290   0.702  1.00  0.00     0.039 C 
HETATM    5  C   UNL     1       4.673  -1.326   0.530  1.00  0.00     0.122 C 
HETATM    6  C   UNL     1       5.312   0.018   0.745  1.00  0.00     0.007 A 
HETATM    7  C   UNL     1       4.594   1.201   0.773  1.00  0.00     0.047 A 
HETATM    8  N   UNL     1       5.184   2.406   0.936  1.00  0.00    -0.237 NA
HETATM    9  C   UNL     1       6.529   2.446   1.026  1.00  0.00     0.133 A 
HETATM   10  N   UNL     1       7.306   1.349   0.992  1.00  0.00    -0.244 NA
HETATM   11  C   UNL     1       6.682   0.168   0.834  1.00  0.00     0.130 A 
HETATM   12  C   UNL     1       3.090   1.216   0.669  1.00  0.00     0.069 C 
ENDROOT
BRANCH   5  13
HETATM   13  N   UNL     1       5.241  -2.322   1.427  1.00  0.00    -0.347 N 
HETATM   14  C   UNL     1       5.298  -3.653   1.092  1.00  0.00     0.270 C 
HETATM   15  O   UNL     1       4.905  -4.080   0.012  1.00  0.00    -0.266 OA
HETATM   16  H   UNL     1       5.450  -2.046   2.377  1.00  0.00     0.163 HD
BRANCH  14  17
HETATM   17  C   UNL     1       5.860  -4.516   2.095  1.00  0.00     0.122 A 
HETATM   18  N   UNL     1       5.969  -5.872   1.889  1.00  0.00    -0.270 N 
HETATM   19  H   UNL     1       5.680  -6.386   1.062  1.00  0.00     0.189 HD
HETATM   20  N   UNL     1       6.532  -6.539   2.917  1.00  0.00    -0.149 NA
HETATM   21  C   UNL     1       6.778  -5.566   3.778  1.00  0.00     0.183 A 
HETATM   22  C   UNL     1       6.395  -4.296   3.352  1.00  0.00     0.096 A 
BRANCH  21  23
HETATM   23  O   UNL     1       7.357  -5.938   4.914  1.00  0.00    -0.344 OA
HETATM   24  H   UNL     1       7.472  -6.900   4.828  1.00  0.00     0.219 HD
ENDBRANCH  21  23
ENDBRANCH  14  17
ENDBRANCH   5  13
BRANCH   9  25
HETATM   25  C   UNL     1       7.194   3.800   1.259  1.00  0.00     0.011 C 
HETATM   26  C   UNL     1       7.160   4.105   2.765  1.00  0.00     0.023 C 
HETATM   27  C   UNL     1       8.658   3.794   0.778  1.00  0.00     0.023 C 
HETATM   28  C   UNL     1       6.448   4.911   0.495  1.00  0.00     0.023 C 
ENDBRANCH   9  25
TORSDOF 4
