REMARK  3 active torsions:
REMARK  status: ('A' for Active; 'I' for Inactive)
REMARK    1  A    between atoms: C_3  and  N_4 
REMARK       I    between atoms: N_4  and  C_5 
REMARK    2  A    between atoms: C_5  and  C_6 
REMARK    3  A    between atoms: C_6  and  C_7 
ROOT
HETATM    1  C   UNL     1      -0.866   2.830  -0.013  1.00  0.00     0.286 C 
HETATM    2  N   UNL     1      -1.717   3.272   1.175  1.00  0.00    -0.056 N 
HETATM    3  H   UNL     1      -2.476   2.560   1.248  1.00  0.00     0.278 HD
HETATM    4  H   UNL     1      -1.186   3.205   2.051  1.00  0.00     0.278 HD
HETATM    5  C   UNL     1      -2.364   4.620   1.022  1.00  0.00     0.209 C 
HETATM    6  C   UNL     1      -3.160   4.657  -0.305  1.00  0.00     0.115 C 
HETATM    7  N   UNL     1      -2.374   4.197  -1.449  1.00  0.00    -0.353 N 
HETATM    8  C   UNL     1      -1.513   3.130  -1.383  1.00  0.00     0.249 C 
HETATM    9  O   UNL     1      -1.218   2.517  -2.403  1.00  0.00    -0.271 OA
HETATM   10  C   UNL     1      -1.310   5.725   1.123  1.00  0.00     0.035 C 
HETATM   11  C   UNL     1      -1.929   7.098   0.871  1.00  0.00     0.002 C 
HETATM   12  C   UNL     1      -2.662   7.146  -0.467  1.00  0.00     0.002 C 
HETATM   13  C   UNL     1      -3.729   6.055  -0.564  1.00  0.00     0.027 C 
HETATM   14  H   UNL     1      -2.786   4.297  -2.376  1.00  0.00     0.163 HD
ENDROOT
BRANCH   1  15
HETATM   15  C   UNL     1      -0.501   1.346   0.101  1.00  0.00     0.146 C 
BRANCH  15  16
HETATM   16  C   UNL     1      -1.756   0.507   0.053  1.00  0.00     0.224 C 
HETATM   17  N   UNL     1      -1.792  -0.720  -0.527  1.00  0.00    -0.325 N 
HETATM   18  H   UNL     1      -2.740  -1.051  -0.684  1.00  0.00     0.169 HD
HETATM   19  O   UNL     1      -2.795   0.993   0.524  1.00  0.00    -0.273 OA
BRANCH  17  20
HETATM   20  C   UNL     1      -0.769  -1.565  -1.007  1.00  0.00     0.073 A 
HETATM   21  C   UNL     1      -1.138  -2.502  -1.982  1.00  0.00     0.033 A 
HETATM   22  C   UNL     1      -0.192  -3.372  -2.533  1.00  0.00     0.002 A 
HETATM   23  C   UNL     1       1.130  -3.338  -2.095  1.00  0.00     0.003 A 
HETATM   24  C   UNL     1       1.501  -2.445  -1.095  1.00  0.00     0.044 A 
HETATM   25  C   UNL     1       0.555  -1.575  -0.553  1.00  0.00     0.143 A 
HETATM   26  F   UNL     1       0.942  -0.802   0.471  1.00  0.00    -0.204 F 
ENDBRANCH  17  20
ENDBRANCH  15  16
ENDBRANCH   1  15
TORSDOF 3
