REMARK  9 active torsions:
REMARK  status: ('A' for Active; 'I' for Inactive)
REMARK    1  A    between atoms: C_2  and  C_3 
REMARK    2  A    between atoms: C_7  and  C_8 
REMARK    3  A    between atoms: C_8  and  C_9 
REMARK       I    between atoms: C_9  and  N_10 
REMARK    4  A    between atoms: N_10  and  C_11 
REMARK    5  A    between atoms: C_11  and  C_12 
REMARK    6  A    between atoms: C_12  and  N_13 
REMARK    7  A    between atoms: C_21  and  C_22 
REMARK    8  A    between atoms: C_32  and  C_33 
REMARK    9  A    between atoms: C_33  and  O_34 
ROOT
HETATM    1  C   UNL     1       3.528  -0.615  -0.977  1.00  0.00     0.037 C 
HETATM    2  N   UNL     1       3.546  -1.205  -2.224  1.00  0.00    -0.232 NA
HETATM    3  C   UNL     1       4.292  -2.241  -2.390  1.00  0.00     0.169 C 
HETATM    4  N   UNL     1       4.904  -3.106  -1.230  1.00  0.00    -0.321 N 
HETATM    5  C   UNL     1       5.251  -4.251  -1.723  1.00  0.00     0.011 C 
HETATM    6  C   UNL     1       4.564  -2.592   0.112  1.00  0.00     0.151 C 
HETATM    7  S   UNL     1       4.563  -2.954  -3.954  1.00  0.00    -0.086 SA
HETATM    8  C   UNL     1       5.614  -4.222  -3.193  1.00  0.00     0.135 C 
HETATM    9  C   UNL     1       4.238  -1.120   0.057  1.00  0.00     0.138 C 
ENDROOT
BRANCH   5  10
HETATM   10  C   UNL     1       5.015  -5.548  -0.994  1.00  0.00     0.156 C 
BRANCH  10  11
HETATM   11  C   UNL     1       3.817  -6.247  -1.635  1.00  0.00     0.223 C 
HETATM   12  N   UNL     1       3.677  -7.583  -1.399  1.00  0.00    -0.359 N 
HETATM   13  H   UNL     1       4.385  -8.041  -0.826  1.00  0.00     0.162 HD
HETATM   14  O   UNL     1       3.039  -5.620  -2.355  1.00  0.00    -0.273 OA
BRANCH  12  15
HETATM   15  C   UNL     1       2.826  -8.502  -2.174  1.00  0.00     0.150 C 
BRANCH  15  16
HETATM   16  C   UNL     1       1.369  -8.082  -2.508  1.00  0.00     0.254 C 
BRANCH  16  17
HETATM   17  N   UNL     1       1.267  -7.009  -3.580  1.00  0.00    -0.070 N 
HETATM   18  H   UNL     1       1.923  -6.263  -3.278  1.00  0.00     0.279 HD
HETATM   19  C   UNL     1       1.681  -7.457  -4.963  1.00  0.00     0.235 C 
HETATM   20  C   UNL     1       1.713  -6.254  -5.898  1.00  0.00     0.028 C 
HETATM   21  C   UNL     1       0.374  -5.530  -5.935  1.00  0.00     0.003 C 
HETATM   22  C   UNL     1      -0.091  -5.162  -4.531  1.00  0.00     0.028 C 
HETATM   23  C   UNL     1      -0.108  -6.371  -3.604  1.00  0.00     0.235 C 
ENDBRANCH  16  17
ENDBRANCH  15  16
ENDBRANCH  12  15
ENDBRANCH  10  11
ENDBRANCH   5  10
BRANCH   6  24
HETATM   24  C   UNL     1       5.537  -2.987   1.227  1.00  0.00    -0.027 A 
HETATM   25  C   UNL     1       5.083  -3.163   2.559  1.00  0.00    -0.053 A 
HETATM   26  C   UNL     1       3.634  -3.043   2.963  1.00  0.00     0.049 C 
HETATM   27  C   UNL     1       6.007  -3.475   3.575  1.00  0.00     0.014 A 
HETATM   28  C   UNL     1       7.373  -3.591   3.310  1.00  0.00    -0.061 A 
HETATM   29  C   UNL     1       8.351  -3.828   4.426  1.00  0.00     0.048 C 
HETATM   30  C   UNL     1       7.825  -3.386   2.009  1.00  0.00     0.007 A 
HETATM   31  C   UNL     1       6.924  -3.089   0.983  1.00  0.00     0.010 A 
ENDBRANCH   6  24
BRANCH   9  32
HETATM   32  C   UNL     1       5.371  -0.207   0.335  1.00  0.00     0.277 C 
HETATM   33  O   UNL     1       6.435  -0.365  -0.255  1.00  0.00    -0.264 OA
BRANCH  32  34
HETATM   34  O   UNL     1       5.039   0.781   1.181  1.00  0.00    -0.325 OA
HETATM   35  C   UNL     1       6.037   1.806   1.282  1.00  0.00     0.213 C 
ENDBRANCH  32  34
ENDBRANCH   9  32
BRANCH   1  36
HETATM   36  C   UNL     1       2.812   0.727  -0.927  1.00  0.00     0.052 C 
HETATM   37  C   UNL     1       1.918   0.874   0.304  1.00  0.00     0.011 C 
ENDBRANCH   1  36
TORSDOF 9
