REMARK  10 active torsions:
REMARK  status: ('A' for Active; 'I' for Inactive)
REMARK    1  A    between atoms: C_2  and  C_3 
REMARK    2  A    between atoms: C_3  and  O_4 
REMARK    3  A    between atoms: O_4  and  C_5 
REMARK    4  A    between atoms: C_7  and  C_8 
REMARK       I    between atoms: C_8  and  N_9 
REMARK    5  A    between atoms: N_9  and  C_10 
REMARK    6  A    between atoms: C_10  and  N_11 
REMARK    7  A    between atoms: N_11  and  C_12 
REMARK    8  A    between atoms: C_15  and  N_16 
REMARK    9  A    between atoms: N_19  and  C_21 
REMARK   10  A    between atoms: C_21  and  C_22 
ROOT
HETATM    1  C   UNL     1       4.008   0.665  -7.338  1.00  0.00     0.034 A 
HETATM    2  C   UNL     1       5.100   0.879  -6.498  1.00  0.00     0.032 A 
HETATM    3  C   UNL     1       5.133   0.340  -5.203  1.00  0.00     0.031 A 
HETATM    4  C   UNL     1       4.099  -0.459  -4.695  1.00  0.00     0.030 A 
HETATM    5  C   UNL     1       3.015  -0.668  -5.567  1.00  0.00     0.031 A 
HETATM    6  C   UNL     1       2.963  -0.113  -6.863  1.00  0.00     0.032 A 
ENDROOT
BRANCH   1   7
HETATM    7  N   UNL     1       4.008   1.372  -8.559  1.00  0.00    -0.333 N 
HETATM    8  H   UNL     1       4.674   2.138  -8.580  1.00  0.00     0.168 HD
BRANCH   7   9
HETATM    9  C   UNL     1       3.044   1.528  -9.485  1.00  0.00     0.179 C 
HETATM   10  S   UNL     1       2.847   3.049 -10.164  1.00  0.00    -0.040 SA
BRANCH   9  11
HETATM   11  N   UNL     1       2.259   0.533  -9.965  1.00  0.00    -0.299 N 
HETATM   12  C   UNL     1       2.647  -0.779 -10.233  1.00  0.00     0.257 C 
HETATM   13  O   UNL     1       3.409  -1.454  -9.550  1.00  0.00    -0.267 OA
HETATM   14  H   UNL     1       1.651   0.938 -10.663  1.00  0.00     0.171 HD
BRANCH  12  15
HETATM   15  C   UNL     1       2.029  -1.397 -11.453  1.00  0.00     0.035 A 
HETATM   16  C   UNL     1       0.825  -0.950 -12.015  1.00  0.00     0.053 A 
HETATM   17  C   UNL     1       0.330  -1.512 -13.198  1.00  0.00     0.069 A 
HETATM   18  C   UNL     1       1.031  -2.547 -13.814  1.00  0.00     0.037 A 
HETATM   19  C   UNL     1       2.216  -3.022 -13.247  1.00  0.00     0.004 A 
HETATM   20  C   UNL     1       2.714  -2.451 -12.073  1.00  0.00     0.017 A 
BRANCH  17  21
HETATM   21  O   UNL     1      -0.832  -0.946 -13.645  1.00  0.00    -0.351 OA
BRANCH  21  22
HETATM   22  C   UNL     1      -1.453  -1.527 -14.796  1.00  0.00     0.179 C 
BRANCH  22  23
HETATM   23  C   UNL     1      -2.760  -0.769 -15.077  1.00  0.00     0.002 C 
HETATM   24  C   UNL     1      -3.592  -1.498 -16.130  1.00  0.00     0.011 C 
HETATM   25  C   UNL     1      -2.483   0.668 -15.525  1.00  0.00     0.011 C 
ENDBRANCH  22  23
ENDBRANCH  21  22
ENDBRANCH  17  21
ENDBRANCH  12  15
ENDBRANCH   9  11
ENDBRANCH   7   9
ENDBRANCH   1   7
BRANCH   4  26
HETATM   26  N   UNL     1       4.134  -0.936  -3.383  1.00  0.00    -0.378 N 
HETATM   27  C   UNL     1       5.431  -1.333  -2.793  1.00  0.00     0.150 C 
HETATM   28  C   UNL     1       5.677  -2.842  -3.006  1.00  0.00     0.255 C 
HETATM   29  N   UNL     1       4.512  -3.659  -2.435  1.00  0.00    -0.064 N 
HETATM   30  H   UNL     1       4.486  -3.468  -1.427  1.00  0.00     0.280 HD
HETATM   31  C   UNL     1       3.176  -3.194  -3.023  1.00  0.00     0.255 C 
HETATM   32  C   UNL     1       2.995  -1.676  -2.810  1.00  0.00     0.150 C 
BRANCH  29  33
HETATM   33  C   UNL     1       4.711  -5.145  -2.595  1.00  0.00     0.273 C 
BRANCH  33  34
HETATM   34  C   UNL     1       5.784  -5.685  -1.689  1.00  0.00    -0.033 A 
HETATM   35  C   UNL     1       5.532  -5.870  -0.320  1.00  0.00     0.009 A 
HETATM   36  C   UNL     1       6.537  -6.339   0.527  1.00  0.00     0.001 A 
HETATM   37  C   UNL     1       7.802  -6.625   0.018  1.00  0.00     0.000 A 
HETATM   38  C   UNL     1       8.064  -6.447  -1.338  1.00  0.00     0.001 A 
HETATM   39  C   UNL     1       7.061  -5.982  -2.190  1.00  0.00     0.009 A 
ENDBRANCH  33  34
ENDBRANCH  29  33
ENDBRANCH   4  26
TORSDOF 10
