REMARK  5 active torsions:
REMARK  status: ('A' for Active; 'I' for Inactive)
REMARK    1  A    between atoms: C_9  and  C_10 
REMARK       I    between atoms: C_10  and  N_11 
REMARK    2  A    between atoms: N_11  and  C_12 
REMARK    3  A    between atoms: C_15  and  N_16 
REMARK       I    between atoms: N_16  and  C_17 
REMARK       I    between atoms: C_17  and  N_18 
REMARK    4  A    between atoms: N_18  and  C_19 
REMARK    5  A    between atoms: C_19  and  C_20 
ROOT
HETATM    1  C   UNL     1       7.909   4.570  -0.362  1.00  0.00     0.035 A 
HETATM    2  C   UNL     1       8.850   5.110  -1.236  1.00  0.00     0.032 A 
HETATM    3  C   UNL     1      10.150   4.584  -1.305  1.00  0.00     0.032 A 
HETATM    4  C   UNL     1      10.538   3.529  -0.481  1.00  0.00     0.036 A 
HETATM    5  C   UNL     1       9.587   2.984   0.389  1.00  0.00     0.032 A 
HETATM    6  C   UNL     1       8.286   3.497   0.447  1.00  0.00     0.032 A 
ENDROOT
BRANCH   1   7
HETATM    7  N   UNL     1       6.582   5.016  -0.264  1.00  0.00    -0.322 N 
HETATM    8  C   UNL     1       5.979   6.083  -0.904  1.00  0.00     0.277 C 
HETATM    9  O   UNL     1       6.529   6.891  -1.644  1.00  0.00    -0.266 OA
HETATM   10  H   UNL     1       5.945   4.503   0.341  1.00  0.00     0.169 HD
BRANCH   8  11
HETATM   11  C   UNL     1       4.538   6.159  -0.587  1.00  0.00     0.157 A 
HETATM   12  C   UNL     1       3.602   7.143  -1.021  1.00  0.00     0.029 A 
HETATM   13  C   UNL     1       3.647   8.313  -1.806  1.00  0.00     0.023 A 
HETATM   14  C   UNL     1       2.386   6.748  -0.479  1.00  0.00     0.063 A 
HETATM   15  C   UNL     1       2.469   9.047  -2.023  1.00  0.00    -0.061 A 
HETATM   16  C   UNL     1       2.496  10.305  -2.843  1.00  0.00     0.048 C 
HETATM   17  C   UNL     1       1.262   8.610  -1.462  1.00  0.00     0.009 A 
HETATM   18  C   UNL     1       1.195   7.451  -0.680  1.00  0.00     0.032 A 
HETATM   19  N   UNL     1       2.656   5.607   0.223  1.00  0.00    -0.277 N 
HETATM   20  H   UNL     1       1.998   5.042   0.748  1.00  0.00     0.189 HD
HETATM   21  N   UNL     1       3.946   5.226   0.195  1.00  0.00    -0.168 NA
ENDBRANCH   8  11
ENDBRANCH   1   7
BRANCH   4  22
HETATM   22  N   UNL     1      11.807   2.920  -0.485  1.00  0.00    -0.309 N 
HETATM   23  C   UNL     1      12.990   3.205  -1.092  1.00  0.00     0.320 C 
HETATM   24  N   UNL     1      13.143   4.427  -1.663  1.00  0.00    -0.339 N 
HETATM   25  O   UNL     1      13.884   2.360  -1.070  1.00  0.00    -0.247 OA
HETATM   26  H   UNL     1      12.677   5.170  -1.164  1.00  0.00     0.164 HD
HETATM   27  H   UNL     1      11.880   2.043   0.015  1.00  0.00     0.170 HD
BRANCH  24  28
HETATM   28  C   UNL     1      14.410   4.785  -2.254  1.00  0.00     0.150 C 
BRANCH  28  29
HETATM   29  C   UNL     1      14.261   5.981  -3.145  1.00  0.00    -0.018 C 
HETATM   30  C   UNL     1      13.181   6.323  -3.862  1.00  0.00     0.008 C 
ENDBRANCH  28  29
ENDBRANCH  24  28
ENDBRANCH   4  22
TORSDOF 5
