REMARK  8 active torsions:
REMARK  status: ('A' for Active; 'I' for Inactive)
REMARK    1  A    between atoms: C_3  and  S_4 
REMARK    2  A    between atoms: S_4  and  C_5 
REMARK    3  A    between atoms: C_5  and  C_6 
REMARK       I    between atoms: C_6  and  N_7 
REMARK    4  A    between atoms: N_7  and  C_8 
REMARK    5  A    between atoms: C_8  and  C_9 
REMARK    6  A    between atoms: C_17  and  C_18 
REMARK    7  A    between atoms: C_18  and  O_19 
REMARK    8  A    between atoms: O_19  and  C_20 
ROOT
HETATM    1  C   UNL     1       1.172   0.125  -0.104  1.00  0.00     0.160 C 
HETATM    2  N   UNL     1       2.611   0.072  -0.076  1.00  0.00    -0.314 N 
HETATM    3  C   UNL     1       3.506   1.104  -0.105  1.00  0.00     0.191 A 
HETATM    4  N   UNL     1       4.729   0.630  -0.063  1.00  0.00    -0.123 NA
HETATM    5  N   UNL     1       4.650  -0.734   0.023  1.00  0.00    -0.132 NA
HETATM    6  C   UNL     1       3.375  -1.073   0.010  1.00  0.00     0.154 A 
ENDROOT
BRANCH   3   7
HETATM    7  S   UNL     1       3.075   2.776  -0.155  1.00  0.00    -0.081 SA
BRANCH   7   8
HETATM    8  C   UNL     1       4.710   3.566  -0.228  1.00  0.00     0.185 C 
BRANCH   8   9
HETATM    9  C   UNL     1       5.362   3.584   1.144  1.00  0.00     0.227 C 
HETATM   10  N   UNL     1       6.204   2.523   1.392  1.00  0.00    -0.354 N 
HETATM   11  H   UNL     1       6.078   1.690   0.817  1.00  0.00     0.162 HD
HETATM   12  O   UNL     1       5.151   4.476   1.962  1.00  0.00    -0.273 OA
BRANCH  10  13
HETATM   13  C   UNL     1       6.793   2.352   2.699  1.00  0.00     0.187 C 
BRANCH  13  14
HETATM   14  C   UNL     1       7.580   1.095   2.730  1.00  0.00     0.070 A 
HETATM   15  O   UNL     1       8.904   1.202   3.045  1.00  0.00    -0.325 OA
HETATM   16  C   UNL     1       9.420  -0.054   3.022  1.00  0.00     0.142 A 
HETATM   17  C   UNL     1       8.447  -0.971   2.701  1.00  0.00     0.027 A 
HETATM   18  C   UNL     1       7.256  -0.231   2.516  1.00  0.00     0.036 A 
ENDBRANCH  13  14
ENDBRANCH  10  13
ENDBRANCH   8   9
ENDBRANCH   7   8
ENDBRANCH   3   7
BRANCH   6  19
HETATM   19  C   UNL     1       2.836  -2.457   0.099  1.00  0.00     0.256 C 
BRANCH  19  20
HETATM   20  O   UNL     1       2.268  -2.760  -1.174  1.00  0.00    -0.344 OA
BRANCH  20  21
HETATM   21  C   UNL     1       1.985  -4.077  -1.412  1.00  0.00     0.070 A 
HETATM   22  C   UNL     1       1.801  -5.058  -0.435  1.00  0.00     0.049 A 
HETATM   23  C   UNL     1       1.515  -6.388  -0.797  1.00  0.00    -0.023 A 
HETATM   24  C   UNL     1       1.406  -6.729  -2.164  1.00  0.00    -0.026 A 
HETATM   25  C   UNL     1       1.335  -7.388   0.173  1.00  0.00     0.012 A 
HETATM   26  C   UNL     1       1.576  -5.731  -3.134  1.00  0.00     0.015 A 
HETATM   27  C   UNL     1       1.128  -8.057  -2.524  1.00  0.00     0.012 A 
HETATM   28  C   UNL     1       1.857  -4.416  -2.758  1.00  0.00     0.037 A 
HETATM   29  C   UNL     1       0.956  -9.039  -1.547  1.00  0.00     0.001 A 
HETATM   30  C   UNL     1       1.059  -8.705  -0.200  1.00  0.00     0.001 A 
ENDBRANCH  20  21
ENDBRANCH  19  20
ENDBRANCH   6  19
TORSDOF 8
