REMARK  8 active torsions:
REMARK  status: ('A' for Active; 'I' for Inactive)
REMARK    1  A    between atoms: C_7  and  C_8 
REMARK       I    between atoms: C_8  and  N_9 
REMARK    2  A    between atoms: N_9  and  C_10 
REMARK    3  A    between atoms: C_11  and  C_12 
REMARK       I    between atoms: C_12  and  N_13 
REMARK    4  A    between atoms: N_13  and  C_14 
REMARK    5  A    between atoms: C_14  and  C_15 
REMARK    6  A    between atoms: C_15  and  C_16 
REMARK    7  A    between atoms: C_18  and  O_19 
REMARK    8  A    between atoms: C_21  and  O_22 
ROOT
HETATM    1  C   UNL     1      -1.397  -0.845   1.076  1.00  0.00     0.050 A 
HETATM    2  C   UNL     1      -1.055  -1.691  -0.004  1.00  0.00     0.058 A 
HETATM    3  C   UNL     1      -0.038  -1.324  -0.906  1.00  0.00     0.019 A 
HETATM    4  C   UNL     1       0.664  -0.135  -0.727  1.00  0.00     0.001 A 
HETATM    5  C   UNL     1       0.350   0.693   0.344  1.00  0.00     0.002 A 
HETATM    6  C   UNL     1      -0.672   0.343   1.234  1.00  0.00     0.030 A 
ENDROOT
BRANCH   2   7
HETATM    7  C   UNL     1      -1.763  -2.983  -0.217  1.00  0.00     0.253 C 
HETATM    8  N   UNL     1      -0.989  -4.036  -0.658  1.00  0.00    -0.356 N 
HETATM    9  H   UNL     1       0.018  -3.936  -0.699  1.00  0.00     0.162 HD
HETATM   10  O   UNL     1      -2.959  -3.086   0.028  1.00  0.00    -0.268 OA
BRANCH   8  11
HETATM   11  C   UNL     1      -1.569  -5.344  -0.893  1.00  0.00     0.127 C 
BRANCH  11  12
HETATM   12  C   UNL     1      -0.551  -6.368  -1.406  1.00  0.00     0.058 C 
BRANCH  12  13
HETATM   13  C   UNL     1       0.206  -6.011  -2.669  1.00  0.00    -0.054 A 
HETATM   14  C   UNL     1      -0.342  -5.210  -3.682  1.00  0.00     0.046 A 
HETATM   15  C   UNL     1       0.385  -4.914  -4.844  1.00  0.00     0.102 A 
HETATM   16  C   UNL     1       1.677  -5.447  -5.014  1.00  0.00     0.101 A 
HETATM   17  C   UNL     1       2.219  -6.262  -4.017  1.00  0.00     0.040 A 
HETATM   18  C   UNL     1       1.488  -6.543  -2.859  1.00  0.00     0.010 A 
BRANCH  15  19
HETATM   19  O   UNL     1      -0.077  -4.122  -5.867  1.00  0.00    -0.353 OA
HETATM   20  C   UNL     1      -1.376  -3.562  -5.737  1.00  0.00     0.210 C 
ENDBRANCH  15  19
BRANCH  16  21
HETATM   21  O   UNL     1       2.324  -5.112  -6.178  1.00  0.00    -0.353 OA
HETATM   22  C   UNL     1       3.575  -5.731  -6.438  1.00  0.00     0.210 C 
ENDBRANCH  16  21
ENDBRANCH  12  13
ENDBRANCH  11  12
ENDBRANCH   8  11
ENDBRANCH   2   7
BRANCH   1  23
HETATM   23  N   UNL     1      -2.448  -1.216   1.954  1.00  0.00    -0.321 N 
HETATM   24  C   UNL     1      -2.842  -0.613   3.135  1.00  0.00     0.265 C 
HETATM   25  O   UNL     1      -2.280   0.358   3.633  1.00  0.00    -0.267 OA
HETATM   26  H   UNL     1      -2.991  -2.037   1.670  1.00  0.00     0.169 HD
BRANCH  24  27
HETATM   27  C   UNL     1      -4.044  -1.273   3.817  1.00  0.00     0.097 C 
HETATM   28  C   UNL     1      -4.604  -0.748   4.938  1.00  0.00     0.064 C 
HETATM   29  C   UNL     1      -4.106   0.495   5.631  1.00  0.00     0.078 C 
HETATM   30  O   UNL     1      -5.696  -1.269   5.617  1.00  0.00    -0.353 OA
HETATM   31  C   UNL     1      -6.514  -2.205   4.918  1.00  0.00     0.185 C 
HETATM   32  C   UNL     1      -5.698  -3.368   4.402  1.00  0.00     0.106 C 
HETATM   33  S   UNL     1      -4.625  -2.757   3.086  1.00  0.00    -0.120 SA
ENDBRANCH  24  27
ENDBRANCH   1  23
TORSDOF 8
