REMARK  4 active torsions:
REMARK  status: ('A' for Active; 'I' for Inactive)
REMARK    1  A    between atoms: S_2  and  N_3 
REMARK    2  A    between atoms: N_3  and  N_4 
REMARK    3  A    between atoms: C_10  and  C_11 
REMARK    4  A    between atoms: C_13  and  O_14 
ROOT
HETATM    1  N   UNL     1       2.811  -1.441   2.372  1.00  0.00    -0.224 N 
HETATM    2  C   UNL     1       1.909  -2.485   2.512  1.00  0.00     0.276 C 
HETATM    3  O   UNL     1       1.991  -3.516   1.844  1.00  0.00    -0.266 OA
HETATM    4  C   UNL     1       0.788  -2.255   3.444  1.00  0.00     0.055 A 
HETATM    5  C   UNL     1       0.517  -0.927   3.805  1.00  0.00     0.026 A 
HETATM    6  N   UNL     1       1.330   0.120   3.334  1.00  0.00    -0.265 NA
HETATM    7  C   UNL     1       2.751  -0.240   3.216  1.00  0.00     0.222 C 
HETATM    8  C   UNL     1      -0.041  -3.304   3.846  1.00  0.00     0.019 A 
HETATM    9  C   UNL     1      -1.168  -3.025   4.617  1.00  0.00     0.001 A 
HETATM   10  C   UNL     1      -1.473  -1.705   4.951  1.00  0.00     0.002 A 
HETATM   11  C   UNL     1      -0.645  -0.659   4.532  1.00  0.00     0.024 A 
HETATM   12  H   UNL     1       1.183   1.002   3.807  1.00  0.00     0.130 HD
ENDROOT
BRANCH   7  13
HETATM   13  C   UNL     1       3.413  -0.419   4.595  1.00  0.00    -0.017 A 
HETATM   14  C   UNL     1       4.470  -1.331   4.784  1.00  0.00     0.047 A 
HETATM   15  C   UNL     1       5.081  -1.468   6.030  1.00  0.00     0.066 A 
HETATM   16  C   UNL     1       4.666  -0.715   7.117  1.00  0.00     0.036 A 
HETATM   17  C   UNL     1       3.642   0.210   6.953  1.00  0.00     0.003 A 
HETATM   18  C   UNL     1       3.034   0.367   5.704  1.00  0.00     0.011 A 
BRANCH  15  19
HETATM   19  O   UNL     1       6.112  -2.341   6.224  1.00  0.00    -0.361 OA
HETATM   20  H   UNL     1       6.376  -2.707   5.365  1.00  0.00     0.217 HD
ENDBRANCH  15  19
ENDBRANCH   7  13
BRANCH   1  21
HETATM   21  N   UNL     1       3.377  -1.295   1.006  1.00  0.00    -0.220 N 
HETATM   22  H   UNL     1       3.048  -2.027   0.361  1.00  0.00     0.200 HD
BRANCH  21  23
HETATM   23  S   UNL     1       5.013  -0.935   0.788  1.00  0.00     0.240 S 
HETATM   24  C   UNL     1       5.730  -2.558   0.936  1.00  0.00     0.187 C 
HETATM   25  O   UNL     1       5.473  -0.131   1.898  1.00  0.00    -0.205 OA
HETATM   26  O   UNL     1       5.177  -0.501  -0.581  1.00  0.00    -0.205 OA
ENDBRANCH  21  23
ENDBRANCH   1  21
TORSDOF 4
