REMARK  7 active torsions:
REMARK  status: ('A' for Active; 'I' for Inactive)
REMARK    1  A    between atoms: C_2  and  N_3 
REMARK    2  A    between atoms: N_7  and  C_8 
REMARK    3  A    between atoms: C_11  and  N_12 
REMARK    4  A    between atoms: N_12  and  C_13 
REMARK    5  A    between atoms: C_13  and  N_14 
REMARK       I    between atoms: N_14  and  C_15 
REMARK    6  A    between atoms: C_15  and  C_16 
REMARK    7  A    between atoms: C_18  and  C_19 
ROOT
HETATM    1  C   UNL     1      -2.949   6.064   6.164  1.00  0.00     0.179 C 
HETATM    2  S   UNL     1      -2.055   5.132   7.243  1.00  0.00    -0.040 SA
ENDROOT
BRANCH   1   3
HETATM    3  N   UNL     1      -2.693   6.243   4.829  1.00  0.00    -0.333 N 
HETATM    4  H   UNL     1      -2.838   7.197   4.507  1.00  0.00     0.168 HD
BRANCH   3   5
HETATM    5  C   UNL     1      -1.820   5.444   4.056  1.00  0.00     0.034 A 
HETATM    6  C   UNL     1      -1.880   4.056   4.093  1.00  0.00     0.032 A 
HETATM    7  C   UNL     1      -0.971   3.281   3.358  1.00  0.00     0.031 A 
HETATM    8  C   UNL     1       0.051   3.854   2.583  1.00  0.00     0.030 A 
HETATM    9  C   UNL     1       0.011   5.257   2.480  1.00  0.00     0.031 A 
HETATM   10  C   UNL     1      -0.905   6.043   3.203  1.00  0.00     0.032 A 
BRANCH   8  11
HETATM   11  N   UNL     1       1.018   3.068   1.928  1.00  0.00    -0.378 N 
HETATM   12  C   UNL     1       1.311   1.722   2.479  1.00  0.00     0.150 C 
HETATM   13  C   UNL     1       2.240   1.840   3.710  1.00  0.00     0.254 C 
HETATM   14  N   UNL     1       3.542   2.573   3.336  1.00  0.00    -0.068 N 
HETATM   15  H   UNL     1       4.032   1.987   2.648  1.00  0.00     0.280 HD
HETATM   16  C   UNL     1       3.244   3.915   2.634  1.00  0.00     0.254 C 
HETATM   17  C   UNL     1       2.262   3.717   1.455  1.00  0.00     0.150 C 
BRANCH  14  18
HETATM   18  C   UNL     1       4.463   2.786   4.516  1.00  0.00     0.230 C 
HETATM   19  C   UNL     1       5.032   1.469   5.009  1.00  0.00     0.034 C 
ENDBRANCH  14  18
ENDBRANCH   8  11
ENDBRANCH   3   5
ENDBRANCH   1   3
BRANCH   1  20
HETATM   20  N   UNL     1      -4.041   6.712   6.707  1.00  0.00    -0.298 N 
HETATM   21  C   UNL     1      -5.189   7.386   6.289  1.00  0.00     0.281 C 
HETATM   22  O   UNL     1      -6.160   7.293   7.047  1.00  0.00    -0.265 OA
HETATM   23  H   UNL     1      -4.205   6.380   7.652  1.00  0.00     0.171 HD
BRANCH  21  24
HETATM   24  C   UNL     1      -5.263   8.152   5.065  1.00  0.00     0.144 A 
HETATM   25  O   UNL     1      -4.164   8.464   4.303  1.00  0.00    -0.304 OA
HETATM   26  C   UNL     1      -4.595   9.301   3.306  1.00  0.00     0.086 A 
HETATM   27  C   UNL     1      -5.951   9.517   3.413  1.00  0.00     0.041 A 
HETATM   28  C   UNL     1      -6.380   8.773   4.529  1.00  0.00     0.046 A 
BRANCH  26  29
HETATM   29  C   UNL     1      -3.589   9.817   2.396  1.00  0.00    -0.001 A 
HETATM   30  C   UNL     1      -2.731   8.950   1.712  1.00  0.00     0.040 A 
HETATM   31  C   UNL     1      -1.775   9.452   0.821  1.00  0.00     0.056 A 
HETATM   32 CL   UNL     1      -0.737   8.314   0.035  1.00  0.00    -0.083 Cl
HETATM   33  C   UNL     1      -1.682  10.829   0.596  1.00  0.00     0.055 A 
HETATM   34 CL   UNL     1      -0.525  11.515  -0.487  1.00  0.00    -0.083 Cl
HETATM   35  C   UNL     1      -2.549  11.699   1.262  1.00  0.00     0.026 A 
HETATM   36  C   UNL     1      -3.497  11.194   2.155  1.00  0.00     0.016 A 
ENDBRANCH  26  29
ENDBRANCH  21  24
ENDBRANCH   1  20
TORSDOF 7
