REMARK  3 active torsions:
REMARK  status: ('A' for Active; 'I' for Inactive)
REMARK    1  A    between atoms: C_2  and  C_3 
REMARK    2  A    between atoms: C_4  and  N_5 
REMARK    3  A    between atoms: C_18  and  C_19 
ROOT
HETATM    1  N   UNL     1       2.933  -1.907   1.691  1.00  0.00    -0.320 N 
HETATM    2  C   UNL     1       3.914  -2.929   1.707  1.00  0.00     0.141 C 
HETATM    3  N   UNL     1       5.133  -2.731   2.121  1.00  0.00    -0.380 N 
HETATM    4  H   UNL     1       5.800  -3.489   2.093  1.00  0.00     0.158 HD
HETATM    5  H   UNL     1       5.400  -1.811   2.442  1.00  0.00     0.158 HD
HETATM    6  S   UNL     1       3.349  -4.418   1.073  1.00  0.00    -0.086 SA
HETATM    7  C   UNL     1       1.855  -3.609   0.349  1.00  0.00     0.093 C 
HETATM    8  C   UNL     1       1.603  -2.351   1.220  1.00  0.00     0.121 C 
HETATM    9  C   UNL     1       0.614  -4.485   0.324  1.00  0.00     0.158 C 
HETATM   10  S   UNL     1      -0.463  -3.866   1.597  1.00  0.00     0.147 S 
HETATM   11  O   UNL     1      -0.778  -4.935   2.518  1.00  0.00    -0.228 OA
HETATM   12  O   UNL     1      -1.481  -3.053   0.965  1.00  0.00    -0.228 OA
HETATM   13  C   UNL     1       0.697  -2.774   2.367  1.00  0.00     0.167 C 
ENDROOT
BRANCH   1  14
HETATM   14  C   UNL     1       3.036  -0.592   2.185  1.00  0.00     0.049 A 
HETATM   15  C   UNL     1       2.974   0.508   1.282  1.00  0.00    -0.031 A 
HETATM   16  C   UNL     1       3.024   1.816   1.793  1.00  0.00     0.009 A 
HETATM   17  C   UNL     1       3.211   2.048   3.149  1.00  0.00     0.001 A 
HETATM   18  C   UNL     1       3.336   0.977   4.026  1.00  0.00     0.009 A 
HETATM   19  C   UNL     1       3.229  -0.351   3.575  1.00  0.00    -0.031 A 
BRANCH  15  20
HETATM   20  C   UNL     1       2.845   0.312  -0.220  1.00  0.00     0.036 C 
HETATM   21  C   UNL     1       3.667   1.268  -1.081  1.00  0.00     0.010 C 
ENDBRANCH  15  20
BRANCH  19  22
HETATM   22  C   UNL     1       3.374  -1.477   4.587  1.00  0.00     0.036 C 
HETATM   23  C   UNL     1       2.740  -1.230   5.953  1.00  0.00     0.010 C 
ENDBRANCH  19  22
ENDBRANCH   1  14
TORSDOF 3
