REMARK  7 active torsions:
REMARK  status: ('A' for Active; 'I' for Inactive)
REMARK       I    between atoms: C_2  and  N_3 
REMARK    1  A    between atoms: N_3  and  C_4 
REMARK    2  A    between atoms: C_7  and  N_8 
REMARK       I    between atoms: N_8  and  C_9 
REMARK    3  A    between atoms: C_9  and  C_10 
REMARK    4  A    between atoms: C_11  and  C_12 
REMARK    5  A    between atoms: C_13  and  O_14 
REMARK    6  A    between atoms: N_20  and  C_21 
REMARK    7  A    between atoms: C_24  and  O_25 
ROOT
HETATM    1  C   UNL     1      -1.784  -4.591   2.926  1.00  0.00     0.106 C 
HETATM    2  C   UNL     1      -1.396  -3.390   2.049  1.00  0.00     0.142 C 
HETATM    3  N   UNL     1      -1.144  -3.763   0.628  1.00  0.00    -0.308 N 
HETATM    4  C   UNL     1      -1.961  -4.709  -0.013  1.00  0.00     0.225 C 
HETATM    5  O   UNL     1      -2.120  -4.788  -1.231  1.00  0.00    -0.273 OA
HETATM    6  C   UNL     1      -2.590  -5.784   0.856  1.00  0.00     0.104 C 
HETATM    7  C   UNL     1      -2.901  -5.402   2.286  1.00  0.00     0.026 C 
ENDROOT
BRANCH   1   8
HETATM    8  C   UNL     1      -0.602  -5.489   3.314  1.00  0.00     0.228 C 
HETATM    9  N   UNL     1       0.250  -5.824   2.279  1.00  0.00    -0.327 N 
HETATM   10  H   UNL     1       0.209  -5.262   1.437  1.00  0.00     0.169 HD
HETATM   11  O   UNL     1      -0.536  -5.929   4.460  1.00  0.00    -0.273 OA
BRANCH   9  12
HETATM   12  C   UNL     1       1.171  -6.892   2.238  1.00  0.00     0.034 A 
HETATM   13  C   UNL     1       1.325  -7.832   3.255  1.00  0.00     0.032 A 
HETATM   14  C   UNL     1       2.188  -8.927   3.093  1.00  0.00     0.032 A 
HETATM   15  C   UNL     1       2.908  -9.099   1.913  1.00  0.00     0.034 A 
HETATM   16  C   UNL     1       2.778  -8.138   0.905  1.00  0.00     0.032 A 
HETATM   17  C   UNL     1       1.917  -7.045   1.065  1.00  0.00     0.032 A 
BRANCH  15  18
HETATM   18  N   UNL     1       3.750 -10.201   1.652  1.00  0.00    -0.328 N 
HETATM   19  C   UNL     1       3.988 -11.289   2.471  1.00  0.00     0.218 C 
HETATM   20  C   UNL     1       4.888 -12.320   1.833  1.00  0.00     0.117 C 
HETATM   21  O   UNL     1       3.533 -11.481   3.593  1.00  0.00    -0.274 OA
HETATM   22  H   UNL     1       4.199 -10.203   0.745  1.00  0.00     0.169 HD
ENDBRANCH  15  18
ENDBRANCH   9  12
ENDBRANCH   1   8
BRANCH   2  23
HETATM   23  C   UNL     1      -2.426  -2.257   2.207  1.00  0.00    -0.001 A 
HETATM   24  C   UNL     1      -2.320  -1.361   3.295  1.00  0.00     0.076 A 
HETATM   25  C   UNL     1      -3.291  -0.371   3.485  1.00  0.00     0.037 A 
HETATM   26  C   UNL     1      -4.364  -0.252   2.602  1.00  0.00     0.003 A 
HETATM   27  C   UNL     1      -4.470  -1.115   1.519  1.00  0.00     0.001 A 
HETATM   28  C   UNL     1      -3.510  -2.108   1.321  1.00  0.00     0.012 A 
BRANCH  24  29
HETATM   29  O   UNL     1      -1.236  -1.544   4.115  1.00  0.00    -0.355 OA
HETATM   30  C   UNL     1      -1.003  -0.565   5.121  1.00  0.00     0.210 C 
ENDBRANCH  24  29
ENDBRANCH   2  23
BRANCH   3  31
HETATM   31  C   UNL     1      -0.168  -2.991  -0.121  1.00  0.00     0.038 A 
HETATM   32  C   UNL     1       0.372  -3.474  -1.322  1.00  0.00     0.032 A 
HETATM   33  C   UNL     1       1.366  -2.769  -2.015  1.00  0.00     0.039 A 
HETATM   34  C   UNL     1       1.860  -1.563  -1.527  1.00  0.00     0.068 A 
HETATM   35  C   UNL     1       1.336  -1.061  -0.342  1.00  0.00     0.039 A 
HETATM   36  C   UNL     1       0.339  -1.769   0.351  1.00  0.00     0.032 A 
BRANCH  34  37
HETATM   37  O   UNL     1       2.835  -0.985  -2.288  1.00  0.00    -0.356 OA
HETATM   38  C   UNL     1       3.428   0.203  -1.780  1.00  0.00     0.210 C 
ENDBRANCH  34  37
ENDBRANCH   3  31
TORSDOF 7
