REMARK  7 active torsions:
REMARK  status: ('A' for Active; 'I' for Inactive)
REMARK    1  A    between atoms: C_2  and  O_3 
REMARK    2  A    between atoms: O_3  and  C_4 
REMARK    3  A    between atoms: C_4  and  C_5 
REMARK    4  A    between atoms: C_6  and  C_7 
REMARK    5  A    between atoms: C_18  and  S_19 
REMARK    6  A    between atoms: S_19  and  C_20 
REMARK    7  A    between atoms: C_20  and  C_21 
ROOT
HETATM    1  C   UNL     1       5.109   0.059  -0.475  1.00  0.00     0.070 A 
HETATM    2  C   UNL     1       5.662   1.457  -0.223  1.00  0.00     0.203 A 
HETATM    3  N   UNL     1       6.571   1.475   0.929  1.00  0.00    -0.082 N 
HETATM    4  C   UNL     1       6.904   0.372   1.662  1.00  0.00     0.726 A 
HETATM    5  N   UNL     1       6.370  -0.820   1.338  1.00  0.00    -0.192 N 
HETATM    6  N   UNL     1       7.237   2.568   1.357  1.00  0.00    -0.128 NA
HETATM    7  C   UNL     1       7.903   2.060   2.402  1.00  0.00     0.226 A 
HETATM    8  N   UNL     1       7.742   0.712   2.605  1.00  0.00    -0.035 NA
HETATM    9  C   UNL     1       5.476  -1.001   0.289  1.00  0.00     0.037 A 
HETATM   10  C   UNL     1       5.006  -2.419   0.073  1.00  0.00     0.070 C 
HETATM   11  H   UNL     1       6.622  -1.635   1.892  1.00  0.00     0.184 HD
ENDROOT
BRANCH   7  12
HETATM   12  S   UNL     1       8.935   3.032   3.413  1.00  0.00    -0.083 SA
BRANCH  12  13
HETATM   13  C   UNL     1       8.051   4.616   3.338  1.00  0.00     0.123 C 
BRANCH  13  14
HETATM   14  C   UNL     1       8.737   5.677   4.167  1.00  0.00    -0.027 A 
HETATM   15  C   UNL     1       8.458   5.883   5.527  1.00  0.00     0.041 A 
HETATM   16 CL   UNL     1       7.283   4.942   6.376  1.00  0.00    -0.084 Cl
HETATM   17  C   UNL     1       9.133   6.874   6.249  1.00  0.00     0.024 A 
HETATM   18  C   UNL     1      10.097   7.666   5.625  1.00  0.00     0.002 A 
HETATM   19  C   UNL     1      10.391   7.468   4.280  1.00  0.00     0.001 A 
HETATM   20  C   UNL     1       9.719   6.480   3.557  1.00  0.00     0.009 A 
ENDBRANCH  13  14
ENDBRANCH  12  13
ENDBRANCH   7  12
BRANCH   2  21
HETATM   21  C   UNL     1       4.583   2.523  -0.045  1.00  0.00    -0.026 A 
HETATM   22  C   UNL     1       4.623   3.688  -0.833  1.00  0.00     0.033 A 
HETATM   23  C   UNL     1       3.645   4.670  -0.690  1.00  0.00     0.034 A 
HETATM   24 CL   UNL     1       3.705   6.081  -1.673  1.00  0.00    -0.084 Cl
HETATM   25  C   UNL     1       2.618   4.515   0.236  1.00  0.00     0.024 A 
HETATM   26  C   UNL     1       2.571   3.370   1.031  1.00  0.00     0.002 A 
HETATM   27  C   UNL     1       3.548   2.380   0.895  1.00  0.00     0.010 A 
ENDBRANCH   2  21
BRANCH   1  28
HETATM   28  C   UNL     1       4.109  -0.073  -1.554  1.00  0.00     0.293 C 
HETATM   29  O   UNL     1       3.096  -0.750  -1.472  1.00  0.00    -0.259 OA
BRANCH  28  30
HETATM   30  O   UNL     1       4.480   0.687  -2.614  1.00  0.00    -0.318 OA
BRANCH  30  31
HETATM   31  C   UNL     1       3.555   0.705  -3.713  1.00  0.00     0.174 C 
HETATM   32  C   UNL     1       2.487   1.759  -3.482  1.00  0.00     0.034 C 
ENDBRANCH  30  31
ENDBRANCH  28  30
ENDBRANCH   1  28
TORSDOF 7
