REMARK  6 active torsions:
REMARK  status: ('A' for Active; 'I' for Inactive)
REMARK    1  A    between atoms: O_2  and  C_3 
REMARK    2  A    between atoms: C_6  and  C_7 
REMARK    3  A    between atoms: C_11  and  C_12 
REMARK       I    between atoms: C_12  and  N_13 
REMARK    4  A    between atoms: N_13  and  N_14 
REMARK       I    between atoms: N_14  and  C_15 
REMARK    5  A    between atoms: C_15  and  C_16 
REMARK    6  A    between atoms: C_17  and  C_18 
ROOT
HETATM    1  C   UNL     1       9.399   0.840  -2.169  1.00  0.00     0.288 C 
HETATM    2  N   UNL     1       9.998   1.999  -2.617  1.00  0.00    -0.262 N 
HETATM    3  O   UNL     1       8.382   0.385  -2.689  1.00  0.00    -0.264 OA
HETATM    4  H   UNL     1      10.751   2.465  -2.118  1.00  0.00     0.190 HD
ENDROOT
BRANCH   1   5
HETATM    5  C   UNL     1      10.056   0.202  -1.061  1.00  0.00     0.121 A 
HETATM    6  N   UNL     1       9.574  -0.946  -0.498  1.00  0.00    -0.272 N 
HETATM    7  N   UNL     1      10.337  -1.437   0.490  1.00  0.00    -0.174 NA
HETATM    8  H   UNL     1       8.733  -1.449  -0.765  1.00  0.00     0.189 HD
HETATM    9  C   UNL     1      11.352  -0.565   0.600  1.00  0.00     0.089 A 
HETATM   10  C   UNL     1      11.205   0.484  -0.350  1.00  0.00     0.071 A 
BRANCH   9  11
HETATM   11  C   UNL     1      12.441  -0.758   1.561  1.00  0.00    -0.005 A 
HETATM   12  C   UNL     1      12.743  -2.039   2.045  1.00  0.00     0.016 A 
HETATM   13  C   UNL     1      13.816  -2.245   2.922  1.00  0.00     0.037 A 
HETATM   14  C   UNL     1      14.602  -1.169   3.331  1.00  0.00     0.068 A 
HETATM   15  C   UNL     1      14.289   0.114   2.876  1.00  0.00     0.037 A 
HETATM   16  C   UNL     1      13.221   0.320   1.996  1.00  0.00     0.016 A 
BRANCH  14  17
HETATM   17  O   UNL     1      15.681  -1.233   4.167  1.00  0.00    -0.356 OA
HETATM   18  C   UNL     1      16.161  -2.532   4.490  1.00  0.00     0.210 C 
ENDBRANCH  14  17
ENDBRANCH   9  11
ENDBRANCH   1   5
BRANCH   2  19
HETATM   19  N   UNL     1       9.380   2.742  -3.625  1.00  0.00    -0.267 N 
HETATM   20  C   UNL     1       9.680   4.081  -3.723  1.00  0.00     0.240 C 
HETATM   21  O   UNL     1      10.474   4.653  -2.981  1.00  0.00    -0.271 OA
HETATM   22  H   UNL     1       8.718   2.260  -4.229  1.00  0.00     0.190 HD
BRANCH  20  23
HETATM   23  C   UNL     1       8.955   4.792  -4.809  1.00  0.00     0.089 A 
HETATM   24  C   UNL     1       9.668   5.297  -6.052  1.00  0.00     0.036 A 
HETATM   25  C   UNL     1       9.162   6.271  -5.016  1.00  0.00     0.025 A 
BRANCH  24  26
HETATM   26  C   UNL     1      11.150   5.082  -6.258  1.00  0.00    -0.015 A 
HETATM   27  C   UNL     1      11.677   3.800  -6.483  1.00  0.00     0.123 A 
HETATM   28  F   UNL     1      10.847   2.744  -6.496  1.00  0.00    -0.206 F 
HETATM   29  C   UNL     1      13.036   3.579  -6.701  1.00  0.00     0.043 A 
HETATM   30  C   UNL     1      13.916   4.657  -6.707  1.00  0.00     0.003 A 
HETATM   31  C   UNL     1      13.428   5.945  -6.499  1.00  0.00     0.001 A 
HETATM   32  C   UNL     1      12.061   6.153  -6.283  1.00  0.00     0.011 A 
ENDBRANCH  24  26
ENDBRANCH  20  23
ENDBRANCH   2  19
TORSDOF 6
