REMARK  3 active torsions:
REMARK  status: ('A' for Active; 'I' for Inactive)
REMARK    1  A    between atoms: C_4  and  C_5 
REMARK    2  A    between atoms: C_11  and  C_12 
REMARK    3  A    between atoms: C_21  and  N_22 
ROOT
HETATM    1  C   UNL     1       2.877   0.231   0.229  1.00  0.00     0.071 A 
HETATM    2  N   UNL     1       3.781   1.265   0.354  1.00  0.00    -0.274 N 
HETATM    3  H   UNL     1       3.585   2.225   0.617  1.00  0.00     0.189 HD
HETATM    4  N   UNL     1       5.061   0.911   0.137  1.00  0.00    -0.148 NA
HETATM    5  C   UNL     1       4.951  -0.382  -0.131  1.00  0.00     0.199 A 
HETATM    6  C   UNL     1       3.636  -0.868  -0.142  1.00  0.00     0.036 A 
HETATM    7  C   UNL     1       3.349  -2.306  -0.452  1.00  0.00     0.079 A 
HETATM    8  C   UNL     1       4.684  -3.077  -0.545  1.00  0.00     0.063 A 
HETATM    9  C   UNL     1       4.581  -4.574  -0.788  1.00  0.00     0.020 C 
HETATM   10  N   UNL     1       4.496  -5.816  -0.990  1.00  0.00    -0.096 N 
HETATM   11  C   UNL     1       5.908  -2.493  -0.494  1.00  0.00     0.139 A 
HETATM   12  O   UNL     1       6.061  -1.114  -0.330  1.00  0.00    -0.277 OA
ENDROOT
BRANCH   7  13
HETATM   13  C   UNL     1       2.479  -2.549  -1.737  1.00  0.00     0.022 C 
HETATM   14  C   UNL     1       1.017  -2.210  -1.553  1.00  0.00    -0.025 C 
HETATM   15  C   UNL     1       0.331  -1.390  -2.362  1.00  0.00    -0.030 C 
HETATM   16  C   UNL     1       0.949  -0.660  -3.513  1.00  0.00     0.027 C 
HETATM   17  C   UNL     1       2.474  -0.615  -3.437  1.00  0.00     0.004 C 
HETATM   18  C   UNL     1       3.067  -1.967  -3.046  1.00  0.00     0.010 C 
ENDBRANCH   7  13
BRANCH  11  19
HETATM   19  N   UNL     1       7.111  -3.153  -0.614  1.00  0.00    -0.282 NA
HETATM   20  H   UNL     1       7.096  -4.022  -1.142  1.00  0.00     0.126 HD
HETATM   21  H   UNL     1       7.860  -2.525  -0.897  1.00  0.00     0.126 HD
ENDBRANCH  11  19
BRANCH   1  22
HETATM   22  C   UNL     1       1.460   0.425   0.499  1.00  0.00    -0.007 A 
HETATM   23  C   UNL     1       0.741   1.425  -0.170  1.00  0.00     0.014 A 
HETATM   24  C   UNL     1      -0.616   1.620   0.095  1.00  0.00     0.001 A 
HETATM   25  C   UNL     1      -1.263   0.820   1.036  1.00  0.00     0.000 A 
HETATM   26  C   UNL     1      -0.555  -0.172   1.711  1.00  0.00     0.001 A 
HETATM   27  C   UNL     1       0.802  -0.369   1.445  1.00  0.00     0.014 A 
ENDBRANCH   1  22
TORSDOF 3
