REMARK  7 active torsions:
REMARK  status: ('A' for Active; 'I' for Inactive)
REMARK    1  A    between atoms: O_2  and  C_3 
REMARK    2  A    between atoms: C_6  and  C_7 
REMARK    3  A    between atoms: N_9  and  C_10 
REMARK    4  A    between atoms: C_10  and  C_11 
REMARK    5  A    between atoms: C_18  and  C_19 
REMARK       I    between atoms: C_19  and  N_20 
REMARK    6  A    between atoms: N_20  and  N_21 
REMARK       I    between atoms: N_21  and  C_22 
REMARK    7  A    between atoms: C_22  and  C_23 
ROOT
HETATM    1  C   UNL     1       4.084   2.543  -4.765  1.00  0.00     0.104 A 
HETATM    2  N   UNL     1       4.090   3.853  -5.081  1.00  0.00    -0.171 NA
HETATM    3  N   UNL     1       4.504   3.905  -6.354  1.00  0.00    -0.275 N 
HETATM    4  C   UNL     1       4.864   2.689  -6.850  1.00  0.00     0.132 A 
HETATM    5  C   UNL     1       4.577   1.759  -5.863  1.00  0.00     0.082 A 
ENDROOT
BRANCH   5   6
HETATM    6  C   UNL     1       4.702   0.315  -6.001  1.00  0.00     0.274 C 
HETATM    7  N   UNL     1       5.636  -0.092  -6.934  1.00  0.00    -0.263 N 
HETATM    8  H   UNL     1       6.160   0.552  -7.520  1.00  0.00     0.190 HD
HETATM    9  O   UNL     1       4.039  -0.496  -5.358  1.00  0.00    -0.266 OA
BRANCH   7  10
HETATM   10  N   UNL     1       5.723  -1.449  -7.271  1.00  0.00    -0.262 N 
HETATM   11  C   UNL     1       6.273  -1.779  -8.492  1.00  0.00     0.286 C 
HETATM   12  O   UNL     1       6.802  -0.929  -9.211  1.00  0.00    -0.264 OA
HETATM   13  H   UNL     1       5.142  -2.090  -6.736  1.00  0.00     0.190 HD
BRANCH  11  14
HETATM   14  C   UNL     1       6.178  -3.169  -8.874  1.00  0.00     0.102 A 
HETATM   15  N   UNL     1       6.659  -3.613 -10.089  1.00  0.00    -0.361 N 
HETATM   16  H   UNL     1       7.100  -3.009 -10.773  1.00  0.00     0.165 HD
HETATM   17  C   UNL     1       6.451  -4.958 -10.220  1.00  0.00     0.088 A 
HETATM   18  C   UNL     1       5.832  -5.403  -9.076  1.00  0.00     0.019 A 
HETATM   19  C   UNL     1       5.660  -4.281  -8.227  1.00  0.00     0.036 A 
ENDBRANCH  11  14
ENDBRANCH   7  10
ENDBRANCH   5   6
BRANCH   1  20
HETATM   20  C   UNL     1       3.606   2.140  -3.436  1.00  0.00    -0.004 A 
HETATM   21  C   UNL     1       2.598   2.893  -2.808  1.00  0.00     0.016 A 
HETATM   22  C   UNL     1       2.121   2.556  -1.536  1.00  0.00     0.037 A 
HETATM   23  C   UNL     1       2.645   1.453  -0.866  1.00  0.00     0.068 A 
HETATM   24  C   UNL     1       3.656   0.707  -1.475  1.00  0.00     0.037 A 
HETATM   25  C   UNL     1       4.140   1.050  -2.744  1.00  0.00     0.016 A 
BRANCH  23  26
HETATM   26  O   UNL     1       2.266   1.010   0.371  1.00  0.00    -0.356 OA
HETATM   27  C   UNL     1       1.217   1.725   1.013  1.00  0.00     0.210 C 
ENDBRANCH  23  26
ENDBRANCH   1  20
BRANCH   3  28
HETATM   28  C   UNL     1       4.508   5.175  -7.068  1.00  0.00     0.189 C 
BRANCH  28  29
HETATM   29  C   UNL     1       3.275   5.320  -7.928  1.00  0.00    -0.038 A 
HETATM   30  C   UNL     1       2.008   5.443  -7.335  1.00  0.00     0.009 A 
HETATM   31  C   UNL     1       0.862   5.555  -8.123  1.00  0.00     0.001 A 
HETATM   32  C   UNL     1       0.969   5.552  -9.511  1.00  0.00     0.000 A 
HETATM   33  C   UNL     1       2.222   5.437 -10.113  1.00  0.00     0.001 A 
HETATM   34  C   UNL     1       3.370   5.322  -9.327  1.00  0.00     0.009 A 
ENDBRANCH  28  29
ENDBRANCH   3  28
TORSDOF 7
