REMARK  12 active torsions:
REMARK  status: ('A' for Active; 'I' for Inactive)
REMARK    1  A    between atoms: C_9  and  S_10 
REMARK    2  A    between atoms: S_10  and  C_11 
REMARK    3  A    between atoms: C_11  and  C_12 
REMARK       I    between atoms: C_12  and  N_13 
REMARK    4  A    between atoms: N_13  and  C_14 
REMARK    5  A    between atoms: C_14  and  C_15 
REMARK    6  A    between atoms: C_15  and  C_16 
REMARK    7  A    between atoms: C_19  and  S_20 
REMARK    8  A    between atoms: S_20  and  N_21 
REMARK    9  A    between atoms: N_27  and  C_28 
REMARK   10  A    between atoms: C_31  and  O_32 
REMARK   11  A    between atoms: O_32  and  C_33 
REMARK   12  A    between atoms: C_41  and  N_42 
ROOT
HETATM    1  C   UNL     1       0.712  -0.049   0.190  1.00  0.00     0.073 C 
HETATM    2  C   UNL     1       2.172  -0.153  -0.072  1.00  0.00     0.068 A 
HETATM    3  N   UNL     1       2.886   0.969  -0.226  1.00  0.00    -0.177 NA
HETATM    4  N   UNL     1       4.140   0.540  -0.421  1.00  0.00    -0.260 N 
HETATM    5  H   UNL     1       4.879   1.224  -0.551  1.00  0.00     0.191 HD
HETATM    6  C   UNL     1       4.244  -0.821  -0.416  1.00  0.00     0.162 A 
HETATM    7  C   UNL     1       2.983  -1.324  -0.184  1.00  0.00     0.081 A 
HETATM    8  N   UNL     1       5.358  -1.523  -0.603  1.00  0.00    -0.204 NA
HETATM    9  C   UNL     1       5.154  -2.855  -0.495  1.00  0.00     0.177 A 
HETATM   10  N   UNL     1       3.949  -3.444  -0.238  1.00  0.00    -0.276 N 
HETATM   11  C   UNL     1       2.796  -2.715  -0.127  1.00  0.00     0.124 A 
ENDROOT
BRANCH   9  12
HETATM   12  S   UNL     1       6.676  -3.786  -0.671  1.00  0.00    -0.082 SA
BRANCH  12  13
HETATM   13  C   UNL     1       7.434  -2.828  -2.026  1.00  0.00     0.185 C 
BRANCH  13  14
HETATM   14  C   UNL     1       8.473  -3.633  -2.790  1.00  0.00     0.227 C 
HETATM   15  N   UNL     1       9.266  -2.842  -3.603  1.00  0.00    -0.360 N 
HETATM   16  H   UNL     1       9.270  -1.841  -3.451  1.00  0.00     0.162 HD
HETATM   17  O   UNL     1       8.552  -4.855  -2.751  1.00  0.00    -0.273 OA
BRANCH  15  18
HETATM   18  C   UNL     1      10.400  -3.388  -4.335  1.00  0.00     0.127 C 
BRANCH  18  19
HETATM   19  C   UNL     1      10.606  -2.665  -5.668  1.00  0.00     0.058 C 
BRANCH  19  20
HETATM   20  C   UNL     1      11.950  -2.981  -6.273  1.00  0.00    -0.057 A 
HETATM   21  C   UNL     1      12.131  -4.135  -7.049  1.00  0.00     0.009 A 
HETATM   22  C   UNL     1      13.390  -4.448  -7.568  1.00  0.00     0.025 A 
HETATM   23  C   UNL     1      14.471  -3.600  -7.313  1.00  0.00     0.074 A 
HETATM   24  C   UNL     1      14.307  -2.451  -6.537  1.00  0.00     0.025 A 
HETATM   25  C   UNL     1      13.048  -2.143  -6.022  1.00  0.00     0.009 A 
BRANCH  23  26
HETATM   26  S   UNL     1      16.082  -4.027  -7.908  1.00  0.00     0.239 S 
HETATM   27  O   UNL     1      17.075  -3.397  -7.068  1.00  0.00    -0.206 OA
HETATM   28  O   UNL     1      16.113  -5.434  -8.223  1.00  0.00    -0.206 OA
BRANCH  26  29
HETATM   29  N   UNL     1      16.138  -3.219  -9.378  1.00  0.00    -0.225 NA
HETATM   30  H   UNL     1      16.884  -2.522  -9.361  1.00  0.00     0.136 HD
HETATM   31  H   UNL     1      16.231  -3.895 -10.138  1.00  0.00     0.136 HD
ENDBRANCH  26  29
ENDBRANCH  23  26
ENDBRANCH  19  20
ENDBRANCH  18  19
ENDBRANCH  15  18
ENDBRANCH  13  14
ENDBRANCH  12  13
ENDBRANCH   9  12
BRANCH  10  32
HETATM   32  C   UNL     1       3.873  -4.869  -0.010  1.00  0.00     0.043 A 
HETATM   33  C   UNL     1       3.457  -5.317   1.247  1.00  0.00     0.033 A 
HETATM   34  C   UNL     1       3.275  -6.684   1.451  1.00  0.00     0.039 A 
HETATM   35  C   UNL     1       3.516  -7.600   0.419  1.00  0.00     0.076 A 
HETATM   36  C   UNL     1       3.953  -7.136  -0.828  1.00  0.00     0.039 A 
HETATM   37  C   UNL     1       4.112  -5.763  -1.056  1.00  0.00     0.033 A 
BRANCH  35  38
HETATM   38  O   UNL     1       3.286  -8.912   0.768  1.00  0.00    -0.311 OA
BRANCH  38  39
HETATM   39  C   UNL     1       3.514  -9.903  -0.151  1.00  0.00     0.076 A 
HETATM   40  C   UNL     1       4.581 -10.771   0.078  1.00  0.00     0.037 A 
HETATM   41  C   UNL     1       4.799 -11.842  -0.788  1.00  0.00     0.003 A 
HETATM   42  C   UNL     1       3.946 -12.045  -1.873  1.00  0.00     0.000 A 
HETATM   43  C   UNL     1       2.864 -11.188  -2.085  1.00  0.00     0.003 A 
HETATM   44  C   UNL     1       2.636 -10.123  -1.214  1.00  0.00     0.037 A 
ENDBRANCH  38  39
ENDBRANCH  35  38
ENDBRANCH  10  32
BRANCH  11  45
HETATM   45  N   UNL     1       1.541  -3.294   0.030  1.00  0.00    -0.384 N 
HETATM   46  H   UNL     1       1.381  -4.267  -0.210  1.00  0.00     0.157 HD
HETATM   47  H   UNL     1       0.722  -2.704  -0.081  1.00  0.00     0.157 HD
ENDBRANCH  11  45
TORSDOF 12
