REMARK  3 active torsions:
REMARK  status: ('A' for Active; 'I' for Inactive)
REMARK    1  A    between atoms: C_3  and  O_4 
REMARK    2  A    between atoms: C_6  and  C_7 
REMARK    3  A    between atoms: N_8  and  N_9 
ROOT
HETATM    1  N   UNL     1      -3.593  -1.367  -0.331  1.00  0.00    -0.189 N 
HETATM    2  C   UNL     1      -2.861  -0.193  -0.561  1.00  0.00     0.298 A 
HETATM    3  O   UNL     1      -1.642  -0.109  -0.681  1.00  0.00    -0.264 OA
HETATM    4  C   UNL     1      -3.718   0.949  -0.596  1.00  0.00     0.133 A 
HETATM    5  C   UNL     1      -5.076   0.882  -0.489  1.00  0.00     0.103 A 
HETATM    6  N   UNL     1      -5.774  -0.321  -0.369  1.00  0.00    -0.239 NA
HETATM    7  C   UNL     1      -4.989  -1.359  -0.316  1.00  0.00     0.239 A 
HETATM    8  N   UNL     1      -3.375   2.266  -0.727  1.00  0.00    -0.349 N 
HETATM    9  H   UNL     1      -2.429   2.609  -0.834  1.00  0.00     0.166 HD
HETATM   10  C   UNL     1      -4.514   3.049  -0.676  1.00  0.00     0.045 A 
HETATM   11  C   UNL     1      -5.610   2.187  -0.529  1.00  0.00     0.024 A 
HETATM   12  C   UNL     1      -4.655   4.440  -0.751  1.00  0.00     0.032 A 
HETATM   13  C   UNL     1      -5.951   4.962  -0.671  1.00  0.00     0.026 A 
HETATM   14  C   UNL     1      -7.054   4.122  -0.525  1.00  0.00     0.035 A 
HETATM   15 CL   UNL     1      -8.632   4.807  -0.427  1.00  0.00    -0.084 Cl
HETATM   16  C   UNL     1      -6.905   2.734  -0.455  1.00  0.00     0.040 A 
ENDROOT
BRANCH   1  17
HETATM   17  N   UNL     1      -2.908  -2.563  -0.328  1.00  0.00    -0.175 NA
HETATM   18  C   UNL     1      -3.047  -3.390   0.667  1.00  0.00     0.150 C 
BRANCH  18  19
HETATM   19  C   UNL     1      -3.742  -3.215   1.959  1.00  0.00    -0.014 A 
HETATM   20  C   UNL     1      -4.382  -4.331   2.504  1.00  0.00     0.049 A 
HETATM   21  C   UNL     1      -5.036  -4.213   3.725  1.00  0.00     0.066 A 
HETATM   22  C   UNL     1      -5.053  -3.005   4.416  1.00  0.00     0.036 A 
HETATM   23  C   UNL     1      -4.391  -1.900   3.881  1.00  0.00     0.004 A 
HETATM   24  C   UNL     1      -3.723  -2.005   2.659  1.00  0.00     0.013 A 
BRANCH  21  25
HETATM   25  O   UNL     1      -5.656  -5.323   4.218  1.00  0.00    -0.361 OA
HETATM   26  H   UNL     1      -6.068  -5.101   5.069  1.00  0.00     0.217 HD
ENDBRANCH  21  25
ENDBRANCH  18  19
ENDBRANCH   1  17
TORSDOF 3
