REMARK  4 active torsions:
REMARK  status: ('A' for Active; 'I' for Inactive)
REMARK    1  A    between atoms: C_6  and  C_7 
REMARK    2  A    between atoms: C_15  and  C_16 
REMARK       I    between atoms: C_16  and  N_17 
REMARK    3  A    between atoms: N_17  and  N_18 
REMARK       I    between atoms: N_18  and  C_19 
REMARK       I    between atoms: C_19  and  N_20 
REMARK    4  A    between atoms: N_20  and  C_21 
ROOT
HETATM    1  C   UNL     1      -2.545   0.107   0.073  1.00  0.00     0.001 A 
HETATM    2  C   UNL     1      -1.462   0.983   0.029  1.00  0.00     0.015 A 
HETATM    3  C   UNL     1      -0.127   0.502  -0.017  1.00  0.00     0.009 A 
HETATM    4  C   UNL     1       0.090  -0.888  -0.032  1.00  0.00     0.068 A 
HETATM    5  N   UNL     1       1.313  -1.438  -0.100  1.00  0.00    -0.248 NA
HETATM    6  C   UNL     1       2.409  -0.644  -0.152  1.00  0.00     0.070 A 
HETATM    7  C   UNL     1       2.306   0.735  -0.102  1.00  0.00     0.050 A 
HETATM    8  C   UNL     1       1.032   1.310  -0.068  1.00  0.00     0.048 A 
HETATM    9  C   UNL     1      -1.006  -1.740   0.011  1.00  0.00     0.032 A 
HETATM   10  C   UNL     1      -2.316  -1.260   0.065  1.00  0.00     0.002 A 
ENDROOT
BRANCH   8  11
HETATM   11  C   UNL     1       0.941   2.792  -0.116  1.00  0.00     0.271 C 
HETATM   12  N   UNL     1       1.687   3.380  -1.117  1.00  0.00    -0.262 N 
HETATM   13  H   UNL     1       2.348   2.874  -1.702  1.00  0.00     0.190 HD
HETATM   14  O   UNL     1       0.236   3.415   0.670  1.00  0.00    -0.266 OA
BRANCH  12  15
HETATM   15  N   UNL     1       1.743   4.774  -1.190  1.00  0.00    -0.249 N 
HETATM   16  C   UNL     1       2.975   5.373  -1.219  1.00  0.00     0.341 C 
HETATM   17  N   UNL     1       3.021   6.732  -1.175  1.00  0.00    -0.286 N 
HETATM   18  O   UNL     1       4.021   4.729  -1.331  1.00  0.00    -0.245 OA
HETATM   19  H   UNL     1       3.936   7.148  -1.239  1.00  0.00     0.172 HD
HETATM   20  H   UNL     1       0.958   5.288  -0.782  1.00  0.00     0.192 HD
BRANCH  17  21
HETATM   21  C   UNL     1       1.940   7.559  -1.104  1.00  0.00     0.174 A 
HETATM   22  S   UNL     1       2.303   9.223  -1.157  1.00  0.00    -0.062 SA
HETATM   23  C   UNL     1       0.624   9.567  -1.064  1.00  0.00     0.072 A 
HETATM   24  C   UNL     1      -0.085   8.386  -0.986  1.00  0.00     0.126 A 
HETATM   25  N   UNL     1       0.675   7.232  -1.005  1.00  0.00    -0.236 NA
ENDBRANCH  17  21
ENDBRANCH  12  15
ENDBRANCH   8  11
BRANCH   6  26
HETATM   26  C   UNL     1       3.697  -1.357  -0.236  1.00  0.00     0.014 A 
HETATM   27  C   UNL     1       4.704  -1.062  -1.177  1.00  0.00     0.046 A 
HETATM   28 CL   UNL     1       4.513   0.150  -2.402  1.00  0.00    -0.083 Cl
HETATM   29  C   UNL     1       5.908  -1.780  -1.195  1.00  0.00     0.025 A 
HETATM   30  C   UNL     1       6.126  -2.817  -0.290  1.00  0.00     0.002 A 
HETATM   31  C   UNL     1       5.139  -3.143   0.633  1.00  0.00     0.001 A 
HETATM   32  C   UNL     1       3.942  -2.422   0.657  1.00  0.00     0.015 A 
ENDBRANCH   6  26
TORSDOF 4
