REMARK  7 active torsions:
REMARK  status: ('A' for Active; 'I' for Inactive)
REMARK    1  A    between atoms: O_2  and  C_3 
REMARK    2  A    between atoms: C_5  and  C_6 
REMARK       I    between atoms: C_6  and  N_7 
REMARK    3  A    between atoms: N_7  and  C_8 
REMARK    4  A    between atoms: C_10  and  C_11 
REMARK    5  A    between atoms: C_11  and  C_12 
REMARK    6  A    between atoms: C_12  and  C_13 
REMARK    7  A    between atoms: C_13  and  C_14 
ROOT
HETATM    1  C   UNL     1       6.111  -1.897   4.713  1.00  0.00     0.725 A 
HETATM    2  N   UNL     1       6.755  -2.695   3.897  1.00  0.00    -0.046 NA
HETATM    3  C   UNL     1       6.724  -3.904   4.551  1.00  0.00     0.165 A 
HETATM    4  N   UNL     1       6.094  -3.891   5.733  1.00  0.00    -0.144 NA
HETATM    5  N   UNL     1       5.712  -2.605   5.814  1.00  0.00    -0.106 N 
HETATM    6  H   UNL     1       5.179  -2.261   6.608  1.00  0.00     0.208 HD
ENDROOT
BRANCH   3   7
HETATM    7  C   UNL     1       7.270  -5.158   3.966  1.00  0.00     0.083 C 
BRANCH   7   8
HETATM    8  C   UNL     1       8.545  -4.956   3.149  1.00  0.00     0.012 C 
BRANCH   8   9
HETATM    9  C   UNL     1       9.039  -6.291   2.590  1.00  0.00     0.041 C 
BRANCH   9  10
HETATM   10  C   UNL     1      10.265  -6.149   1.746  1.00  0.00    -0.030 A 
HETATM   11  C   UNL     1      10.317  -5.797   0.359  1.00  0.00    -0.002 A 
HETATM   12  C   UNL     1      11.657  -5.806  -0.027  1.00  0.00     0.042 A 
HETATM   13  C   UNL     1       9.343  -5.475  -0.609  1.00  0.00     0.014 A 
HETATM   14  C   UNL     1      12.074  -5.514  -1.331  1.00  0.00     0.030 A 
HETATM   15  N   UNL     1      12.394  -6.143   1.084  1.00  0.00    -0.365 N 
HETATM   16  C   UNL     1      11.088  -5.200  -2.271  1.00  0.00     0.002 A 
HETATM   17  C   UNL     1       9.741  -5.178  -1.918  1.00  0.00     0.001 A 
HETATM   18  H   UNL     1      13.400  -6.228   1.099  1.00  0.00     0.165 HD
HETATM   19  C   UNL     1      11.569  -6.351   2.156  1.00  0.00     0.096 A 
ENDBRANCH   9  10
ENDBRANCH   8   9
ENDBRANCH   7   8
ENDBRANCH   3   7
BRANCH   1  20
HETATM   20  N   UNL     1       5.860  -0.566   4.498  1.00  0.00    -0.152 N 
HETATM   21  C   UNL     1       5.089   0.168   5.372  1.00  0.00     0.270 C 
HETATM   22  O   UNL     1       4.571  -0.281   6.391  1.00  0.00    -0.267 OA
HETATM   23  H   UNL     1       6.194  -0.193   3.621  1.00  0.00     0.187 HD
BRANCH  21  24
HETATM   24  C   UNL     1       4.866   1.586   4.993  1.00  0.00     0.035 A 
HETATM   25  C   UNL     1       3.611   2.152   5.246  1.00  0.00     0.053 A 
HETATM   26  C   UNL     1       3.353   3.483   4.908  1.00  0.00     0.069 A 
HETATM   27  C   UNL     1       4.363   4.249   4.325  1.00  0.00     0.037 A 
HETATM   28  C   UNL     1       5.624   3.691   4.086  1.00  0.00     0.004 A 
HETATM   29  C   UNL     1       5.879   2.360   4.419  1.00  0.00     0.017 A 
BRANCH  26  30
HETATM   30  O   UNL     1       2.084   3.906   5.192  1.00  0.00    -0.356 OA
HETATM   31  C   UNL     1       1.780   5.268   4.921  1.00  0.00     0.210 C 
ENDBRANCH  26  30
ENDBRANCH  21  24
ENDBRANCH   1  20
TORSDOF 7
