REMARK  8 active torsions:
REMARK  status: ('A' for Active; 'I' for Inactive)
REMARK    1  A    between atoms: O_2  and  C_3 
REMARK    2  A    between atoms: C_7  and  C_9 
REMARK    3  A    between atoms: C_9  and  C_10 
REMARK    4  A    between atoms: C_9  and  N_13 
REMARK    5  A    between atoms: C_10  and  C_11 
REMARK    6  A    between atoms: C_11  and  O_12 
REMARK       I    between atoms: N_13  and  C_14 
REMARK    7  A    between atoms: C_14  and  C_16 
REMARK    8  A    between atoms: C_19  and  C_22 
ROOT
HETATM    1  N   UNL     1       2.485  -5.051  -0.977  1.00  0.00    -0.348 N 
HETATM    2  C   UNL     1       1.132  -5.271  -0.834  1.00  0.00     0.252 C 
HETATM    3  O   UNL     1       0.318  -5.052  -1.723  1.00  0.00    -0.268 OA
HETATM    4  H   UNL     1       3.124  -5.302  -0.238  1.00  0.00     0.163 HD
ENDROOT
BRANCH   1   5
HETATM    5  C   UNL     1       3.058  -4.488  -2.193  1.00  0.00     0.120 C 
BRANCH   5   6
HETATM    6  C   UNL     1       3.184  -2.971  -2.123  1.00  0.00    -0.033 A 
HETATM    7  C   UNL     1       3.193  -2.235  -3.321  1.00  0.00     0.009 A 
HETATM    8  C   UNL     1       3.354  -0.850  -3.307  1.00  0.00     0.003 A 
HETATM    9  C   UNL     1       3.495  -0.180  -2.094  1.00  0.00     0.037 A 
HETATM   10  C   UNL     1       3.465  -0.885  -0.891  1.00  0.00     0.068 A 
HETATM   11  C   UNL     1       3.332  -2.277  -0.908  1.00  0.00     0.046 A 
BRANCH  10  12
HETATM   12  O   UNL     1       3.602  -0.115   0.232  1.00  0.00    -0.356 OA
HETATM   13  C   UNL     1       3.117  -0.685   1.442  1.00  0.00     0.210 C 
ENDBRANCH  10  12
ENDBRANCH   5   6
BRANCH   5  14
HETATM   14  C   UNL     1       4.430  -5.118  -2.478  1.00  0.00     0.056 C 
BRANCH  14  15
HETATM   15  C   UNL     1       4.324  -6.607  -2.790  1.00  0.00     0.166 C 
BRANCH  15  16
HETATM   16  O   UNL     1       5.625  -7.144  -3.003  1.00  0.00    -0.401 OA
HETATM   17  H   UNL     1       5.990  -6.726  -3.802  1.00  0.00     0.209 HD
ENDBRANCH  15  16
ENDBRANCH  14  15
ENDBRANCH   5  14
ENDBRANCH   1   5
BRANCH   2  18
HETATM   18  C   UNL     1       0.685  -5.866   0.459  1.00  0.00     0.032 A 
HETATM   19  C   UNL     1       1.425  -5.758   1.641  1.00  0.00     0.018 A 
HETATM   20  C   UNL     1       0.977  -6.382   2.813  1.00  0.00     0.013 A 
HETATM   21  C   UNL     1      -0.222  -7.116   2.838  1.00  0.00    -0.026 A 
HETATM   22  C   UNL     1      -0.971  -7.184   1.652  1.00  0.00     0.013 A 
HETATM   23  C   UNL     1      -0.526  -6.566   0.478  1.00  0.00     0.018 A 
BRANCH  21  24
HETATM   24  C   UNL     1      -0.670  -7.801   4.064  1.00  0.00    -0.023 A 
HETATM   25  C   UNL     1      -0.693  -7.145   5.301  1.00  0.00     0.031 A 
HETATM   26  C   UNL     1      -1.111  -7.839   6.426  1.00  0.00     0.117 A 
HETATM   27  N   UNL     1      -1.504  -9.128   6.411  1.00  0.00    -0.273 NA
HETATM   28  C   UNL     1      -1.481  -9.750   5.215  1.00  0.00     0.117 A 
HETATM   29  C   UNL     1      -1.080  -9.140   4.036  1.00  0.00     0.031 A 
ENDBRANCH  21  24
ENDBRANCH   2  18
TORSDOF 8
