REMARK  5 active torsions:
REMARK  status: ('A' for Active; 'I' for Inactive)
REMARK    1  A    between atoms: C_3  and  N_4 
REMARK       I    between atoms: N_4  and  C_5 
REMARK       I    between atoms: C_5  and  N_6 
REMARK    2  A    between atoms: N_6  and  C_7 
REMARK    3  A    between atoms: C_7  and  C_8 
REMARK    4  A    between atoms: C_8  and  O_9 
REMARK    5  A    between atoms: O_9  and  C_10 
ROOT
HETATM    1  N   UNL     1       6.760   1.593  -4.605  1.00  0.00    -0.307 N 
HETATM    2  C   UNL     1       6.370   2.364  -3.532  1.00  0.00     0.320 C 
HETATM    3  N   UNL     1       7.364   2.401  -2.577  1.00  0.00    -0.340 N 
HETATM    4  O   UNL     1       5.329   2.994  -3.424  1.00  0.00    -0.247 OA
HETATM    5  H   UNL     1       7.762   1.604  -4.736  1.00  0.00     0.170 HD
HETATM    6  H   UNL     1       7.992   1.610  -2.532  1.00  0.00     0.164 HD
ENDROOT
BRANCH   3   7
HETATM    7  C   UNL     1       7.210   3.174  -1.354  1.00  0.00     0.156 C 
BRANCH   7   8
HETATM    8  C   UNL     1       6.856   2.319  -0.122  1.00  0.00     0.142 C 
HETATM    9  C   UNL     1       5.583   1.500  -0.325  1.00  0.00     0.042 C 
BRANCH   8  10
HETATM   10  O   UNL     1       7.915   1.386   0.151  1.00  0.00    -0.345 OA
BRANCH  10  11
HETATM   11  C   UNL     1       8.950   1.771   0.957  1.00  0.00     0.069 A 
HETATM   12  C   UNL     1       9.194   3.058   1.439  1.00  0.00     0.038 A 
HETATM   13  C   UNL     1      10.308   3.309   2.249  1.00  0.00     0.026 A 
HETATM   14  C   UNL     1      11.178   2.272   2.579  1.00  0.00     0.034 A 
HETATM   15 CL   UNL     1      12.545   2.586   3.574  1.00  0.00    -0.084 Cl
HETATM   16  C   UNL     1      10.946   0.986   2.102  1.00  0.00     0.026 A 
HETATM   17  C   UNL     1       9.835   0.740   1.292  1.00  0.00     0.038 A 
ENDBRANCH  10  11
ENDBRANCH   8  10
ENDBRANCH   7   8
ENDBRANCH   3   7
BRANCH   1  18
HETATM   18  C   UNL     1       5.990   1.330  -5.763  1.00  0.00     0.059 A 
HETATM   19  C   UNL     1       4.608   1.095  -5.802  1.00  0.00    -0.032 A 
HETATM   20  C   UNL     1       3.722   0.992  -4.594  1.00  0.00     0.050 C 
HETATM   21  C   UNL     1       4.000   0.912  -7.058  1.00  0.00     0.028 A 
HETATM   22  C   UNL     1       4.781   0.903  -8.203  1.00  0.00     0.117 A 
HETATM   23  N   UNL     1       6.117   1.054  -8.193  1.00  0.00    -0.271 NA
HETATM   24  C   UNL     1       6.681   1.261  -6.979  1.00  0.00     0.146 A 
ENDBRANCH   1  18
TORSDOF 5
