REMARK  1 active torsions:
REMARK  status: ('A' for Active; 'I' for Inactive)
REMARK    1  A    between atoms: C_8  and  C_9 
ROOT
HETATM    1  C   UNL     1       1.149  -0.318  -0.092  1.00  0.00     0.073 C 
HETATM    2  C   UNL     1       2.610  -0.063  -0.004  1.00  0.00     0.062 C 
HETATM    3  N   UNL     1       3.424  -1.090   0.267  1.00  0.00    -0.178 NA
HETATM    4  N   UNL     1       4.646  -0.551   0.231  1.00  0.00    -0.262 N 
HETATM    5  H   UNL     1       5.440  -1.158   0.396  1.00  0.00     0.191 HD
HETATM    6  C   UNL     1       4.635   0.809   0.103  1.00  0.00     0.134 C 
HETATM    7  C   UNL     1       3.331   1.164  -0.191  1.00  0.00     0.032 C 
HETATM    8  C   UNL     1       2.763   2.471  -0.673  1.00  0.00     0.120 C 
HETATM    9  S   UNL     1       3.416   4.027   0.022  1.00  0.00    -0.141 SA
HETATM   10  C   UNL     1       4.565   3.441   1.303  1.00  0.00     0.136 C 
HETATM   11  C   UNL     1       4.934   4.643   2.176  1.00  0.00     0.031 C 
HETATM   12  C   UNL     1       5.829   2.837   0.683  1.00  0.00     0.236 C 
HETATM   13  O   UNL     1       6.915   3.422   0.662  1.00  0.00    -0.272 OA
HETATM   14  N   UNL     1       5.787   1.543   0.231  1.00  0.00    -0.311 N 
HETATM   15  H   UNL     1       6.697   1.116   0.100  1.00  0.00     0.170 HD
ENDROOT
BRANCH   8  16
HETATM   16  C   UNL     1       2.896   2.437  -2.205  1.00  0.00    -0.029 A 
HETATM   17  C   UNL     1       1.785   2.187  -3.078  1.00  0.00    -0.018 A 
HETATM   18  C   UNL     1       2.020   2.123  -4.480  1.00  0.00    -0.025 A 
HETATM   19  C   UNL     1       0.443   2.000  -2.658  1.00  0.00     0.013 A 
HETATM   20  C   UNL     1       0.970   1.852  -5.372  1.00  0.00     0.012 A 
HETATM   21  C   UNL     1       3.305   2.331  -4.996  1.00  0.00     0.012 A 
HETATM   22  C   UNL     1      -0.328   1.647  -4.916  1.00  0.00     0.001 A 
HETATM   23  C   UNL     1      -0.592   1.728  -3.558  1.00  0.00     0.001 A 
HETATM   24  C   UNL     1       4.374   2.600  -4.155  1.00  0.00     0.002 A 
HETATM   25  C   UNL     1       4.173   2.646  -2.782  1.00  0.00     0.009 A 
ENDBRANCH   8  16
TORSDOF 1
