REMARK  4 active torsions:
REMARK  status: ('A' for Active; 'I' for Inactive)
REMARK    1  A    between atoms: C_5  and  C_6 
REMARK    2  A    between atoms: C_10  and  C_11 
REMARK       I    between atoms: C_11  and  N_12 
REMARK    3  A    between atoms: N_12  and  N_13 
REMARK       I    between atoms: N_13  and  C_14 
REMARK       I    between atoms: C_14  and  N_15 
REMARK    4  A    between atoms: N_15  and  C_16 
ROOT
HETATM    1  C   UNL     1       9.975  -1.475  -0.483  1.00  0.00     0.288 C 
HETATM    2  N   UNL     1       9.837  -2.815  -0.769  1.00  0.00    -0.261 N 
HETATM    3  O   UNL     1      11.077  -0.955  -0.312  1.00  0.00    -0.264 OA
HETATM    4  H   UNL     1       8.941  -3.291  -0.846  1.00  0.00     0.190 HD
ENDROOT
BRANCH   1   5
HETATM    5  C   UNL     1       8.747  -0.736  -0.383  1.00  0.00     0.121 A 
HETATM    6  N   UNL     1       8.733   0.619  -0.214  1.00  0.00    -0.272 N 
HETATM    7  N   UNL     1       7.506   1.146  -0.100  1.00  0.00    -0.174 NA
HETATM    8  H   UNL     1       9.538   1.235  -0.158  1.00  0.00     0.189 HD
HETATM    9  C   UNL     1       6.672   0.098  -0.197  1.00  0.00     0.089 A 
HETATM   10  C   UNL     1       7.415  -1.101  -0.394  1.00  0.00     0.071 A 
BRANCH   9  11
HETATM   11  C   UNL     1       5.217   0.253  -0.071  1.00  0.00    -0.006 A 
HETATM   12  C   UNL     1       4.340  -0.777  -0.437  1.00  0.00     0.014 A 
HETATM   13  C   UNL     1       2.957  -0.632  -0.276  1.00  0.00     0.007 A 
HETATM   14  C   UNL     1       2.422   0.550   0.244  1.00  0.00    -0.062 A 
HETATM   15  C   UNL     1       0.946   0.692   0.465  1.00  0.00     0.048 C 
HETATM   16  C   UNL     1       3.291   1.582   0.611  1.00  0.00     0.007 A 
HETATM   17  C   UNL     1       4.673   1.436   0.448  1.00  0.00     0.014 A 
ENDBRANCH   9  11
ENDBRANCH   1   5
BRANCH   2  18
HETATM   18  N   UNL     1      10.974  -3.643  -0.755  1.00  0.00    -0.249 N 
HETATM   19  C   UNL     1      10.731  -5.008  -0.706  1.00  0.00     0.339 C 
HETATM   20  N   UNL     1      11.904  -5.719  -0.555  1.00  0.00    -0.306 N 
HETATM   21  O   UNL     1       9.604  -5.469  -0.856  1.00  0.00    -0.245 OA
HETATM   22  H   UNL     1      12.681  -5.291  -1.039  1.00  0.00     0.171 HD
HETATM   23  H   UNL     1      11.758  -3.275  -0.222  1.00  0.00     0.192 HD
BRANCH  20  24
HETATM   24  C   UNL     1      11.965  -7.124  -0.389  1.00  0.00     0.058 A 
HETATM   25  C   UNL     1      11.118  -7.879   0.444  1.00  0.00     0.060 A 
HETATM   26 CL   UNL     1      10.010  -7.171   1.570  1.00  0.00    -0.082 Cl
HETATM   27  C   UNL     1      11.251  -9.273   0.499  1.00  0.00     0.026 A 
HETATM   28  C   UNL     1      12.239  -9.920  -0.242  1.00  0.00     0.002 A 
HETATM   29  C   UNL     1      13.117  -9.175  -1.023  1.00  0.00     0.002 A 
HETATM   30  C   UNL     1      12.987  -7.785  -1.087  1.00  0.00     0.031 A 
ENDBRANCH  20  24
ENDBRANCH   2  18
TORSDOF 4
