REMARK  3 active torsions:
REMARK  status: ('A' for Active; 'I' for Inactive)
REMARK    1  A    between atoms: C_3  and  N_4 
REMARK       I    between atoms: N_4  and  C_5 
REMARK    2  A    between atoms: C_5  and  C_6 
REMARK    3  A    between atoms: C_17  and  O_18 
ROOT
HETATM    1  C   UNL     1       4.521   3.995  -0.308  1.00  0.00     0.153 A 
HETATM    2  N   UNL     1       5.251   2.856  -0.350  1.00  0.00    -0.168 NA
HETATM    3  N   UNL     1       6.531   3.284  -0.385  1.00  0.00    -0.276 N 
HETATM    4  H   UNL     1       7.269   2.592  -0.442  1.00  0.00     0.189 HD
HETATM    5  C   UNL     1       6.654   4.638  -0.330  1.00  0.00     0.069 A 
HETATM    6  C   UNL     1       5.369   5.131  -0.286  1.00  0.00     0.007 A 
HETATM    7  C   UNL     1       5.094   6.589  -0.171  1.00  0.00     0.048 C 
HETATM    8  C   UNL     1       6.274   7.427  -0.717  1.00  0.00     0.044 C 
HETATM    9  C   UNL     1       7.660   6.856  -0.439  1.00  0.00    -0.043 A 
HETATM   10  C   UNL     1       7.851   5.461  -0.308  1.00  0.00    -0.001 A 
HETATM   11  C   UNL     1       8.773   7.706  -0.410  1.00  0.00     0.044 A 
HETATM   12  C   UNL     1      10.062   7.193  -0.237  1.00  0.00     0.068 A 
HETATM   13  C   UNL     1      10.239   5.815  -0.102  1.00  0.00     0.037 A 
HETATM   14  C   UNL     1       9.138   4.949  -0.138  1.00  0.00     0.017 A 
ENDROOT
BRANCH   1  15
HETATM   15  C   UNL     1       3.044   3.966  -0.262  1.00  0.00     0.277 C 
HETATM   16  N   UNL     1       2.564   2.677  -0.111  1.00  0.00    -0.321 N 
HETATM   17  H   UNL     1       3.309   1.993  -0.018  1.00  0.00     0.169 HD
HETATM   18  O   UNL     1       2.376   4.991  -0.321  1.00  0.00    -0.266 OA
BRANCH  16  19
HETATM   19  C   UNL     1       1.226   2.243  -0.026  1.00  0.00     0.043 A 
HETATM   20  C   UNL     1       0.961   0.908   0.356  1.00  0.00    -0.035 A 
HETATM   21  C   UNL     1       2.053  -0.071   0.701  1.00  0.00     0.050 C 
HETATM   22  C   UNL     1      -0.370   0.451   0.401  1.00  0.00     0.012 A 
HETATM   23  C   UNL     1      -1.426   1.305   0.095  1.00  0.00     0.043 A 
HETATM   24  C   UNL     1      -1.154   2.615  -0.263  1.00  0.00     0.118 A 
HETATM   25  C   UNL     1       0.152   3.089  -0.325  1.00  0.00     0.072 A 
HETATM   26  F   UNL     1      -2.169   3.435  -0.568  1.00  0.00    -0.206 F 
ENDBRANCH  16  19
ENDBRANCH   1  15
BRANCH  12  27
HETATM   27  O   UNL     1      11.052   8.137  -0.221  1.00  0.00    -0.356 OA
HETATM   28  C   UNL     1      12.387   7.669  -0.082  1.00  0.00     0.210 C 
ENDBRANCH  12  27
TORSDOF 3
