REMARK  7 active torsions:
REMARK  status: ('A' for Active; 'I' for Inactive)
REMARK    1  A    between atoms: C_2  and  C_3 
REMARK    2  A    between atoms: N_21  and  N_23 
REMARK       I    between atoms: N_23  and  C_24 
REMARK    3  A    between atoms: C_24  and  C_25 
REMARK    4  A    between atoms: C_25  and  N_26 
REMARK    5  A    between atoms: C_25  and  C_34 
REMARK       I    between atoms: N_26  and  C_27 
REMARK    6  A    between atoms: C_27  and  O_28 
REMARK    7  A    between atoms: O_28  and  C_29 
ROOT
HETATM    1  C   UNL     1      15.418  -3.000   0.362  1.00  0.00    -0.041 C 
HETATM    2  C   UNL     1      16.137  -3.121   1.639  1.00  0.00     0.005 C 
HETATM    3  C   UNL     1      15.388  -3.347   2.797  1.00  0.00     0.091 C 
HETATM    4  C   UNL     1      15.965  -3.943   3.917  1.00  0.00     0.075 C 
HETATM    5  C   UNL     1      17.330  -4.221   3.890  1.00  0.00     0.079 C 
HETATM    6  C   UNL     1      18.140  -3.693   2.882  1.00  0.00    -0.024 C 
HETATM    7  C   UNL     1      19.641  -3.776   2.970  1.00  0.00     0.044 C 
HETATM    8  C   UNL     1      20.083  -4.553   4.207  1.00  0.00     0.043 C 
HETATM    9  C   UNL     1      19.093  -5.695   4.498  1.00  0.00     0.068 C 
HETATM   10  C   UNL     1      18.988  -6.682   3.298  1.00  0.00     0.038 C 
HETATM   11  C   UNL     1      18.107  -7.890   3.592  1.00  0.00     0.003 C 
HETATM   12  C   UNL     1      18.612  -8.642   4.813  1.00  0.00     0.000 C 
HETATM   13  C   UNL     1      18.706  -7.720   6.024  1.00  0.00     0.003 C 
HETATM   14  C   UNL     1      19.563  -6.481   5.742  1.00  0.00     0.038 C 
HETATM   15  O   UNL     1      17.814  -5.091   4.835  1.00  0.00    -0.340 OA
HETATM   16  C   UNL     1      17.530  -3.183   1.731  1.00  0.00     0.024 C 
HETATM   17  O   UNL     1      14.020  -2.999   2.857  1.00  0.00    -0.292 OA
HETATM   18  C   UNL     1      13.409  -2.640   1.681  1.00  0.00     0.163 C 
HETATM   19  N   UNL     1      12.211  -2.197   1.776  1.00  0.00    -0.277 N 
HETATM   20  H   UNL     1      11.679  -2.054   0.905  1.00  0.00     0.189 HD
HETATM   21  C   UNL     1      14.091  -2.816   0.400  1.00  0.00     0.065 C 
ENDROOT
BRANCH  19  22
HETATM   22  N   UNL     1      11.597  -1.717   2.947  1.00  0.00    -0.266 N 
HETATM   23  C   UNL     1      10.401  -1.056   2.709  1.00  0.00     0.263 C 
HETATM   24  O   UNL     1       9.812  -1.254   1.638  1.00  0.00    -0.269 OA
HETATM   25  H   UNL     1      12.194  -1.521   3.749  1.00  0.00     0.190 HD
BRANCH  23  26
HETATM   26  C   UNL     1       9.995   0.079   3.671  1.00  0.00     0.214 C 
BRANCH  26  27
HETATM   27  N   UNL     1      10.215   1.372   3.039  1.00  0.00    -0.319 N 
HETATM   28  C   UNL     1      11.358   1.730   2.397  1.00  0.00     0.362 C 
HETATM   29  O   UNL     1      12.292   0.966   2.194  1.00  0.00    -0.238 OA
HETATM   30  H   UNL     1       9.570   2.130   3.227  1.00  0.00     0.166 HD
BRANCH  28  31
HETATM   31  O   UNL     1      11.269   3.021   2.028  1.00  0.00    -0.294 OA
BRANCH  31  32
HETATM   32  C   UNL     1      12.327   3.672   1.274  1.00  0.00     0.061 C 
HETATM   33  C   UNL     1      12.541   2.990  -0.082  1.00  0.00     0.046 C 
HETATM   34  C   UNL     1      11.817   5.101   1.030  1.00  0.00     0.046 C 
HETATM   35  C   UNL     1      13.621   3.741   2.090  1.00  0.00     0.046 C 
ENDBRANCH  31  32
ENDBRANCH  28  31
ENDBRANCH  26  27
BRANCH  26  36
HETATM   36  C   UNL     1      10.516  -0.038   5.088  1.00  0.00    -0.026 A 
HETATM   37  C   UNL     1       9.822  -0.865   5.992  1.00  0.00     0.010 A 
HETATM   38  C   UNL     1      10.241  -0.988   7.317  1.00  0.00     0.001 A 
HETATM   39  C   UNL     1      11.362  -0.293   7.760  1.00  0.00     0.000 A 
HETATM   40  C   UNL     1      12.067   0.520   6.878  1.00  0.00     0.001 A 
HETATM   41  C   UNL     1      11.651   0.646   5.550  1.00  0.00     0.010 A 
ENDBRANCH  26  36
ENDBRANCH  23  26
ENDBRANCH  19  22
BRANCH   1  42
HETATM   42  C   UNL     1      16.127  -3.305  -0.939  1.00  0.00     0.035 C 
HETATM   43  C   UNL     1      16.721  -2.076  -1.606  1.00  0.00     0.010 C 
ENDBRANCH   1  42
TORSDOF 7
