REMARK  7 active torsions:
REMARK  status: ('A' for Active; 'I' for Inactive)
REMARK    1  A    between atoms: C_4  and  C_5 
REMARK    2  A    between atoms: C_10  and  C_11 
REMARK       I    between atoms: C_11  and  N_12 
REMARK    3  A    between atoms: N_12  and  C_13 
REMARK    4  A    between atoms: C_13  and  C_14 
REMARK    5  A    between atoms: C_14  and  C_15 
REMARK    6  A    between atoms: C_15  and  N_16 
REMARK    7  A    between atoms: C_26  and  C_27 
ROOT
HETATM    1  C   UNL     1       2.966  -2.322   0.244  1.00  0.00     0.125 C 
HETATM    2  N   UNL     1       2.681  -2.238  -1.191  1.00  0.00    -0.365 N 
HETATM    3  C   UNL     1       2.552  -3.334  -1.976  1.00  0.00     0.141 A 
HETATM    4  N   UNL     1       2.536  -4.593  -1.443  1.00  0.00    -0.238 N 
HETATM    5  N   UNL     1       2.273  -5.566  -2.339  1.00  0.00    -0.163 NA
HETATM    6  C   UNL     1       2.230  -4.907  -3.523  1.00  0.00     0.165 A 
HETATM    7  C   UNL     1       2.403  -3.515  -3.327  1.00  0.00     0.092 A 
HETATM    8 BR   UNL     1       2.366  -2.181  -4.641  1.00  0.00    -0.044 Br
HETATM    9  C   UNL     1       2.726  -4.881  -0.033  1.00  0.00     0.221 C 
HETATM   10  C   UNL     1       2.389  -3.638   0.807  1.00  0.00     0.067 C 
HETATM   11  H   UNL     1       2.938  -1.343  -1.611  1.00  0.00     0.162 HD
ENDROOT
BRANCH   6  12
HETATM   12  C   UNL     1       1.990  -5.650  -4.765  1.00  0.00     0.273 C 
HETATM   13  N   UNL     1       1.799  -7.004  -4.574  1.00  0.00    -0.355 N 
HETATM   14  H   UNL     1       1.948  -7.322  -3.613  1.00  0.00     0.162 HD
HETATM   15  O   UNL     1       1.908  -5.152  -5.890  1.00  0.00    -0.266 OA
BRANCH  13  16
HETATM   16  C   UNL     1       1.695  -7.955  -5.652  1.00  0.00     0.124 C 
BRANCH  16  17
HETATM   17  C   UNL     1       0.261  -8.195  -6.124  1.00  0.00     0.047 C 
BRANCH  17  18
HETATM   18  C   UNL     1      -0.535  -6.972  -6.586  1.00  0.00     0.236 C 
BRANCH  18  19
HETATM   19  N   UNL     1       0.168  -6.131  -7.616  1.00  0.00    -0.067 N 
HETATM   20  H   UNL     1       1.057  -5.804  -7.180  1.00  0.00     0.280 HD
HETATM   21  C   UNL     1       0.487  -6.839  -8.920  1.00  0.00     0.261 C 
HETATM   22  C   UNL     1       1.205  -5.878  -9.874  1.00  0.00     0.195 C 
HETATM   23  O   UNL     1       0.421  -4.704 -10.111  1.00  0.00    -0.388 OA
HETATM   24  C   UNL     1       0.188  -3.981  -8.896  1.00  0.00     0.195 C 
HETATM   25  C   UNL     1      -0.597  -4.838  -7.897  1.00  0.00     0.261 C 
ENDBRANCH  18  19
ENDBRANCH  17  18
ENDBRANCH  16  17
ENDBRANCH  13  16
ENDBRANCH   6  12
BRANCH   9  26
HETATM   26  C   UNL     1       4.119  -5.426   0.191  1.00  0.00     0.409 C 
HETATM   27  F   UNL     1       5.092  -4.662  -0.337  1.00  0.00    -0.169 F 
HETATM   28  F   UNL     1       4.368  -5.546   1.519  1.00  0.00    -0.169 F 
HETATM   29  F   UNL     1       4.252  -6.667  -0.336  1.00  0.00    -0.169 F 
ENDBRANCH   9  26
BRANCH   1  30
HETATM   30  C   UNL     1       4.396  -2.055   0.670  1.00  0.00     0.005 A 
HETATM   31  S   UNL     1       5.563  -1.461  -0.447  1.00  0.00    -0.104 SA
HETATM   32  C   UNL     1       6.783  -1.397   0.746  1.00  0.00     0.050 A 
HETATM   33  C   UNL     1       6.317  -1.784   1.981  1.00  0.00     0.008 A 
HETATM   34  C   UNL     1       4.941  -2.149   1.941  1.00  0.00     0.017 A 
ENDBRANCH   1  30
TORSDOF 7
