REMARK  4 active torsions:
REMARK  status: ('A' for Active; 'I' for Inactive)
REMARK    1  A    between atoms: C_7  and  C_8 
REMARK    2  A    between atoms: C_10  and  O_11 
REMARK    3  A    between atoms: C_17  and  C_18 
REMARK    4  A    between atoms: C_25  and  C_26 
REMARK       I    between atoms: C_26  and  N_27 
ROOT
HETATM    1  C   UNL     1       1.098   0.150   0.150  1.00  0.00     0.070 C 
HETATM    2  C   UNL     1       2.600   0.022   0.085  1.00  0.00     0.037 C 
HETATM    3  N   UNL     1       3.306   1.223   0.023  1.00  0.00    -0.192 N 
HETATM    4  C   UNL     1       4.642   1.291   0.176  1.00  0.00     0.726 A 
HETATM    5  N   UNL     1       5.366   0.137   0.195  1.00  0.00    -0.083 N 
HETATM    6  N   UNL     1       6.667   0.367   0.454  1.00  0.00    -0.135 NA
HETATM    7  C   UNL     1       6.687   1.713   0.518  1.00  0.00     0.199 A 
HETATM    8  N   UNL     1       5.445   2.307   0.356  1.00  0.00    -0.041 NA
HETATM    9  C   UNL     1       4.792  -1.192  -0.026  1.00  0.00     0.202 C 
HETATM   10  C   UNL     1       3.270  -1.162   0.082  1.00  0.00     0.062 C 
HETATM   11  H   UNL     1       2.768   2.080   0.131  1.00  0.00     0.184 HD
ENDROOT
BRANCH   7  12
HETATM   12  C   UNL     1       7.901   2.495   0.743  1.00  0.00     0.017 A 
HETATM   13  C   UNL     1       7.840   3.898   0.781  1.00  0.00     0.052 A 
HETATM   14  C   UNL     1       8.996   4.656   0.989  1.00  0.00     0.069 A 
HETATM   15  C   UNL     1      10.219   4.005   1.165  1.00  0.00     0.037 A 
HETATM   16  C   UNL     1      10.296   2.614   1.131  1.00  0.00     0.004 A 
HETATM   17  C   UNL     1       9.140   1.862   0.920  1.00  0.00     0.015 A 
BRANCH  14  18
HETATM   18  O   UNL     1       9.064   6.021   1.043  1.00  0.00    -0.356 OA
HETATM   19  C   UNL     1       7.849   6.733   0.846  1.00  0.00     0.210 C 
ENDBRANCH  14  18
ENDBRANCH   7  12
BRANCH   9  20
HETATM   20  C   UNL     1       5.310  -1.727  -1.365  1.00  0.00    -0.028 A 
HETATM   21  C   UNL     1       6.417  -2.596  -1.382  1.00  0.00     0.012 A 
HETATM   22  C   UNL     1       6.916  -3.088  -2.590  1.00  0.00     0.043 A 
HETATM   23  C   UNL     1       6.317  -2.710  -3.785  1.00  0.00     0.116 A 
HETATM   24  F   UNL     1       6.795  -3.184  -4.942  1.00  0.00    -0.206 F 
HETATM   25  C   UNL     1       5.233  -1.842  -3.796  1.00  0.00     0.043 A 
HETATM   26  C   UNL     1       4.733  -1.344  -2.592  1.00  0.00     0.012 A 
ENDBRANCH   9  20
BRANCH  10  27
HETATM   27  C   UNL     1       2.558  -2.439   0.359  1.00  0.00     0.249 C 
HETATM   28  N   UNL     1       3.066  -3.571  -0.192  1.00  0.00    -0.366 N 
HETATM   29  H   UNL     1       3.774  -3.603  -0.911  1.00  0.00     0.159 HD
HETATM   30  H   UNL     1       2.542  -4.422  -0.028  1.00  0.00     0.159 HD
HETATM   31  O   UNL     1       1.569  -2.505   1.079  1.00  0.00    -0.268 OA
ENDBRANCH  10  27
TORSDOF 4
