REMARK  6 active torsions:
REMARK  status: ('A' for Active; 'I' for Inactive)
REMARK    1  A    between atoms: C_5  and  C_6 
REMARK    2  A    between atoms: C_6  and  N_7 
REMARK    3  A    between atoms: C_9  and  C_10 
REMARK    4  A    between atoms: C_17  and  C_18 
REMARK       I    between atoms: C_18  and  N_19 
REMARK    5  A    between atoms: N_19  and  C_20 
REMARK    6  A    between atoms: C_23  and  O_24 
ROOT
HETATM    1  N   UNL     1       7.159  -1.754  -0.720  1.00  0.00    -0.275 N 
HETATM    2  N   UNL     1       8.450  -2.124  -0.746  1.00  0.00    -0.171 NA
HETATM    3  C   UNL     1       8.432  -3.459  -0.926  1.00  0.00     0.104 A 
HETATM    4  C   UNL     1       7.083  -3.945  -0.915  1.00  0.00     0.080 A 
HETATM    5  C   UNL     1       6.304  -2.803  -0.848  1.00  0.00     0.132 A 
ENDROOT
BRANCH   4   6
HETATM    6  C   UNL     1       6.508  -5.283  -0.931  1.00  0.00     0.255 C 
HETATM    7  N   UNL     1       7.212  -6.217  -0.210  1.00  0.00    -0.352 N 
HETATM    8  H   UNL     1       8.022  -5.877   0.294  1.00  0.00     0.163 HD
HETATM    9  O   UNL     1       5.431  -5.501  -1.469  1.00  0.00    -0.268 OA
BRANCH   7  10
HETATM   10  C   UNL     1       6.767  -7.563   0.150  1.00  0.00     0.084 C 
HETATM   11  C   UNL     1       5.648  -7.557   1.201  1.00  0.00     0.028 C 
HETATM   12  C   UNL     1       4.234  -7.550   0.622  1.00  0.00     0.034 C 
HETATM   13  C   UNL     1       4.041  -8.641  -0.425  1.00  0.00     0.118 C 
HETATM   14  C   UNL     1       5.068  -8.549  -1.548  1.00  0.00     0.034 C 
HETATM   15  C   UNL     1       6.510  -8.499  -1.039  1.00  0.00     0.028 C 
BRANCH  13  16
HETATM   16  O   UNL     1       4.165  -9.919   0.201  1.00  0.00    -0.396 OA
HETATM   17  H   UNL     1       3.429 -10.001   0.832  1.00  0.00     0.210 HD
ENDBRANCH  13  16
ENDBRANCH   7  10
ENDBRANCH   4   6
BRANCH   3  18
HETATM   18  C   UNL     1       9.708  -4.175  -1.076  1.00  0.00    -0.005 A 
HETATM   19  C   UNL     1      10.874  -3.643  -0.502  1.00  0.00     0.014 A 
HETATM   20  C   UNL     1      12.108  -4.284  -0.643  1.00  0.00     0.007 A 
HETATM   21  C   UNL     1      12.205  -5.476  -1.367  1.00  0.00    -0.062 A 
HETATM   22  C   UNL     1      13.532  -6.163  -1.499  1.00  0.00     0.048 C 
HETATM   23  C   UNL     1      11.050  -6.012  -1.945  1.00  0.00     0.007 A 
HETATM   24  C   UNL     1       9.816  -5.360  -1.814  1.00  0.00     0.014 A 
ENDBRANCH   3  18
BRANCH   1  25
HETATM   25  C   UNL     1       6.801  -0.383  -0.377  1.00  0.00     0.189 C 
BRANCH  25  26
HETATM   26  C   UNL     1       6.680   0.518  -1.579  1.00  0.00    -0.038 A 
HETATM   27  C   UNL     1       5.463   1.145  -1.879  1.00  0.00     0.009 A 
HETATM   28  C   UNL     1       5.369   2.043  -2.946  1.00  0.00     0.007 A 
HETATM   29  C   UNL     1       6.486   2.323  -3.740  1.00  0.00    -0.062 A 
HETATM   30  C   UNL     1       6.403   3.329  -4.849  1.00  0.00     0.048 C 
HETATM   31  C   UNL     1       7.702   1.699  -3.443  1.00  0.00     0.007 A 
HETATM   32  C   UNL     1       7.798   0.803  -2.376  1.00  0.00     0.009 A 
ENDBRANCH  25  26
ENDBRANCH   1  25
TORSDOF 6
