REMARK  8 active torsions:
REMARK  status: ('A' for Active; 'I' for Inactive)
REMARK    1  A    between atoms: C_8  and  N_9 
REMARK    2  A    between atoms: C_10  and  S_11 
REMARK    3  A    between atoms: S_11  and  C_12 
REMARK    4  A    between atoms: C_12  and  C_13 
REMARK       I    between atoms: C_13  and  N_14 
REMARK    5  A    between atoms: N_14  and  C_15 
REMARK    6  A    between atoms: C_15  and  C_16 
REMARK    7  A    between atoms: C_16  and  C_17 
REMARK    8  A    between atoms: C_27  and  N_28 
ROOT
HETATM    1  N   UNL     1       2.569  -2.212  -0.599  1.00  0.00    -0.275 N 
HETATM    2  C   UNL     1       1.803  -2.259  -1.794  1.00  0.00     0.177 A 
HETATM    3  N   UNL     1       1.327  -3.341  -2.363  1.00  0.00    -0.204 NA
HETATM    4  C   UNL     1       1.610  -4.476  -1.686  1.00  0.00     0.162 A 
HETATM    5  C   UNL     1       2.311  -4.644  -0.523  1.00  0.00     0.081 A 
HETATM    6  C   UNL     1       2.827  -3.461   0.098  1.00  0.00     0.124 A 
HETATM    7  N   UNL     1       1.239  -5.732  -2.064  1.00  0.00    -0.260 N 
HETATM    8  H   UNL     1       0.695  -6.000  -2.877  1.00  0.00     0.191 HD
HETATM    9  N   UNL     1       1.692  -6.693  -1.228  1.00  0.00    -0.177 NA
HETATM   10  C   UNL     1       2.361  -6.023  -0.275  1.00  0.00     0.068 A 
HETATM   11  C   UNL     1       3.027  -6.776   0.813  1.00  0.00     0.073 C 
ENDROOT
BRANCH   2  12
HETATM   12  S   UNL     1       1.470  -0.751  -2.675  1.00  0.00    -0.082 SA
BRANCH  12  13
HETATM   13  C   UNL     1      -0.221  -1.073  -3.240  1.00  0.00     0.185 C 
BRANCH  13  14
HETATM   14  C   UNL     1      -1.221  -1.186  -2.093  1.00  0.00     0.227 C 
HETATM   15  N   UNL     1      -2.513  -0.854  -2.468  1.00  0.00    -0.360 N 
HETATM   16  H   UNL     1      -2.643  -0.331  -3.326  1.00  0.00     0.162 HD
HETATM   17  O   UNL     1      -0.939  -1.567  -0.961  1.00  0.00    -0.273 OA
BRANCH  15  18
HETATM   18  C   UNL     1      -3.603  -0.848  -1.504  1.00  0.00     0.127 C 
BRANCH  18  19
HETATM   19  C   UNL     1      -4.963  -0.819  -2.201  1.00  0.00     0.058 C 
BRANCH  19  20
HETATM   20  C   UNL     1      -6.112  -0.833  -1.226  1.00  0.00    -0.057 A 
HETATM   21  C   UNL     1      -6.621   0.365  -0.707  1.00  0.00     0.007 A 
HETATM   22  C   UNL     1      -7.685   0.347   0.197  1.00  0.00     0.001 A 
HETATM   23  C   UNL     1      -8.246  -0.866   0.593  1.00  0.00     0.000 A 
HETATM   24  C   UNL     1      -7.742  -2.062   0.088  1.00  0.00     0.001 A 
HETATM   25  C   UNL     1      -6.678  -2.048  -0.816  1.00  0.00     0.007 A 
ENDBRANCH  19  20
ENDBRANCH  18  19
ENDBRANCH  15  18
ENDBRANCH  13  14
ENDBRANCH  12  13
ENDBRANCH   2  12
BRANCH   1  26
HETATM   26  C   UNL     1       3.234  -1.014  -0.195  1.00  0.00     0.051 A 
HETATM   27  C   UNL     1       2.615  -0.051   0.633  1.00  0.00    -0.013 A 
HETATM   28  C   UNL     1       1.187  -0.215   1.089  1.00  0.00     0.052 C 
HETATM   29  C   UNL     1       3.349   1.100   0.979  1.00  0.00     0.042 A 
HETATM   30 CL   UNL     1       2.660   2.367   1.934  1.00  0.00    -0.084 Cl
HETATM   31  C   UNL     1       4.673   1.266   0.561  1.00  0.00     0.024 A 
HETATM   32  C   UNL     1       5.288   0.296  -0.223  1.00  0.00     0.004 A 
HETATM   33  C   UNL     1       4.572  -0.836  -0.601  1.00  0.00     0.031 A 
ENDBRANCH   1  26
BRANCH   6  34
HETATM   34  N   UNL     1       3.499  -3.515   1.232  1.00  0.00    -0.384 N 
HETATM   35  H   UNL     1       3.660  -4.386   1.714  1.00  0.00     0.157 HD
HETATM   36  H   UNL     1       3.840  -2.659   1.651  1.00  0.00     0.157 HD
ENDBRANCH   6  34
TORSDOF 8
