REMARK  6 active torsions:
REMARK  status: ('A' for Active; 'I' for Inactive)
REMARK    1  A    between atoms: C_5  and  N_6 
REMARK    2  A    between atoms: N_6  and  C_7 
REMARK    3  A    between atoms: C_7  and  C_8 
REMARK    4  A    between atoms: N_10  and  C_12 
REMARK    5  A    between atoms: C_12  and  C_13 
REMARK    6  A    between atoms: C_14  and  O_15 
ROOT
HETATM    1  C   UNL     1       5.397   4.969  -0.722  1.00  0.00     0.031 C 
HETATM    2  C   UNL     1       6.710   4.937   0.047  1.00  0.00     0.241 C 
HETATM    3  N   UNL     1       7.248   6.339  -0.119  1.00  0.00    -0.067 N 
HETATM    4  H   UNL     1       7.712   6.617   0.766  1.00  0.00     0.280 HD
HETATM    5  C   UNL     1       6.074   7.254  -0.383  1.00  0.00     0.235 C 
HETATM    6  C   UNL     1       4.853   6.341  -0.337  1.00  0.00     0.035 C 
ENDROOT
BRANCH   1   7
HETATM    7  C   UNL     1       4.443   3.816  -0.389  1.00  0.00     0.127 C 
BRANCH   7   8
HETATM    8  N   UNL     1       5.078   2.539  -0.690  1.00  0.00    -0.376 N 
HETATM    9  H   UNL     1       5.521   2.502  -1.614  1.00  0.00     0.161 HD
BRANCH   8  10
HETATM   10  C   UNL     1       4.447   1.314  -0.450  1.00  0.00     0.101 A 
HETATM   11  N   UNL     1       3.183   1.213  -0.005  1.00  0.00    -0.347 N 
HETATM   12  C   UNL     1       2.564   0.037   0.228  1.00  0.00     0.007 A 
HETATM   13  H   UNL     1       2.653   2.063   0.144  1.00  0.00     0.167 HD
HETATM   14  C   UNL     1       1.136   0.043   0.671  1.00  0.00     0.068 C 
HETATM   15  C   UNL     1       3.264  -1.153   0.037  1.00  0.00     0.025 A 
HETATM   16  C   UNL     1       4.582  -1.104  -0.394  1.00  0.00     0.006 A 
HETATM   17  C   UNL     1       5.173   0.130  -0.640  1.00  0.00     0.048 A 
ENDBRANCH   8  10
ENDBRANCH   7   8
ENDBRANCH   1   7
BRANCH   3  18
HETATM   18  C   UNL     1       8.355   6.486  -1.140  1.00  0.00     0.276 C 
BRANCH  18  19
HETATM   19  C   UNL     1       9.598   5.716  -0.791  1.00  0.00     0.002 A 
HETATM   20  C   UNL     1      10.218   5.865   0.456  1.00  0.00     0.073 A 
HETATM   21  C   UNL     1      11.384   5.171   0.775  1.00  0.00     0.038 A 
HETATM   22  C   UNL     1      11.946   4.305  -0.164  1.00  0.00     0.022 A 
HETATM   23  C   UNL     1      11.343   4.148  -1.410  1.00  0.00     0.011 A 
HETATM   24 BR   UNL     1      12.092   2.963  -2.676  1.00  0.00    -0.051 Br
HETATM   25  C   UNL     1      10.181   4.852  -1.731  1.00  0.00     0.030 A 
BRANCH  20  26
HETATM   26  O   UNL     1       9.633   6.697   1.373  1.00  0.00    -0.360 OA
HETATM   27  H   UNL     1      10.289   6.864   2.082  1.00  0.00     0.217 HD
ENDBRANCH  20  26
ENDBRANCH  18  19
ENDBRANCH   3  18
TORSDOF 6
