REMARK  9 active torsions:
REMARK  status: ('A' for Active; 'I' for Inactive)
REMARK    1  A    between atoms: C_2  and  C_3 
REMARK    2  A    between atoms: C_3  and  N_4 
REMARK    3  A    between atoms: C_7  and  C_8 
REMARK       I    between atoms: C_8  and  N_9 
REMARK    4  A    between atoms: N_9  and  C_10 
REMARK    5  A    between atoms: C_10  and  C_11 
REMARK    6  A    between atoms: C_13  and  O_14 
REMARK    7  A    between atoms: O_14  and  C_15 
REMARK    8  A    between atoms: C_15  and  C_16 
REMARK       I    between atoms: C_16  and  N_17 
REMARK    9  A    between atoms: C_23  and  C_24 
ROOT
HETATM    1  C   UNL     1       0.891  -0.470  -4.846  1.00  0.00     0.255 C 
HETATM    2  N   UNL     1       1.500   0.222  -5.873  1.00  0.00    -0.353 N 
HETATM    3  O   UNL     1      -0.317  -0.687  -4.807  1.00  0.00    -0.268 OA
HETATM    4  H   UNL     1       2.506   0.171  -5.951  1.00  0.00     0.163 HD
ENDROOT
BRANCH   2   5
HETATM    5  C   UNL     1       0.714   0.527  -7.047  1.00  0.00     0.161 C 
BRANCH   5   6
HETATM    6  C   UNL     1       1.222   1.652  -7.913  1.00  0.00    -0.038 A 
HETATM    7  C   UNL     1       2.026   2.697  -7.436  1.00  0.00     0.045 A 
HETATM    8  C   UNL     1       2.376   3.776  -8.261  1.00  0.00     0.070 A 
HETATM    9  C   UNL     1       1.909   3.816  -9.575  1.00  0.00     0.037 A 
HETATM   10  C   UNL     1       1.103   2.788 -10.062  1.00  0.00     0.003 A 
HETATM   11  C   UNL     1       0.762   1.718  -9.238  1.00  0.00     0.009 A 
BRANCH   8  12
HETATM   12  O   UNL     1       3.168   4.725  -7.669  1.00  0.00    -0.342 OA
BRANCH  12  13
HETATM   13  C   UNL     1       3.432   5.899  -8.436  1.00  0.00     0.278 C 
BRANCH  13  14
HETATM   14  C   UNL     1       4.319   6.876  -7.668  1.00  0.00     0.239 C 
HETATM   15  N   UNL     1       5.023   6.346  -6.626  1.00  0.00    -0.368 N 
HETATM   16  H   UNL     1       4.789   5.424  -6.276  1.00  0.00     0.159 HD
HETATM   17  H   UNL     1       5.577   6.971  -6.057  1.00  0.00     0.159 HD
HETATM   18  O   UNL     1       4.449   8.055  -7.983  1.00  0.00    -0.271 OA
ENDBRANCH  13  14
ENDBRANCH  12  13
ENDBRANCH   8  12
ENDBRANCH   5   6
ENDBRANCH   2   5
BRANCH   1  19
HETATM   19  C   UNL     1       1.782  -1.019  -3.851  1.00  0.00     0.075 A 
HETATM   20  C   UNL     1       2.198  -2.367  -3.806  1.00  0.00     0.158 A 
HETATM   21  N   UNL     1       2.890  -2.663  -2.710  1.00  0.00    -0.183 NA
HETATM   22  N   UNL     1       2.882  -1.514  -2.003  1.00  0.00    -0.268 N 
HETATM   23  C   UNL     1       2.272  -0.470  -2.675  1.00  0.00     0.052 A 
BRANCH  22  24
HETATM   24  C   UNL     1       3.339  -1.523  -0.611  1.00  0.00     0.106 C 
HETATM   25  C   UNL     1       2.134  -1.699   0.321  1.00  0.00     0.034 C 
BRANCH  24  26
HETATM   26  C   UNL     1       4.405  -2.591  -0.284  1.00  0.00     0.022 C 
HETATM   27  C   UNL     1       5.730  -2.354  -0.994  1.00  0.00     0.007 C 
ENDBRANCH  24  26
ENDBRANCH  22  24
BRANCH  23  28
HETATM   28  C   UNL     1       2.121   0.947  -2.117  1.00  0.00     0.038 A 
HETATM   29  C   UNL     1       2.232   2.134  -3.045  1.00  0.00     0.011 A 
HETATM   30  C   UNL     1       0.909   1.783  -2.455  1.00  0.00     0.011 A 
ENDBRANCH  23  28
ENDBRANCH   1  19
TORSDOF 9
