REMARK  5 active torsions:
REMARK  status: ('A' for Active; 'I' for Inactive)
REMARK    1  A    between atoms: N_4  and  C_5 
REMARK    2  A    between atoms: C_16  and  N_17 
REMARK       I    between atoms: N_17  and  C_18 
REMARK    3  A    between atoms: C_18  and  C_19 
REMARK       I    between atoms: C_19  and  N_20 
REMARK    4  A    between atoms: N_20  and  C_21 
REMARK    5  A    between atoms: C_21  and  C_22 
ROOT
HETATM    1  C   UNL     1       1.016   0.417   0.098  1.00  0.00     0.072 C 
HETATM    2  C   UNL     1       2.470   0.139  -0.012  1.00  0.00     0.055 C 
HETATM    3  N   UNL     1       3.307   1.082  -0.453  1.00  0.00    -0.156 NA
HETATM    4  N   UNL     1       4.556   0.502  -0.375  1.00  0.00    -0.045 N 
HETATM    5  C   UNL     1       4.450  -0.859  -0.094  1.00  0.00     0.152 C 
HETATM    6  C   UNL     1       3.139  -1.068   0.274  1.00  0.00     0.079 C 
ENDROOT
BRANCH   5   7
HETATM    7  N   UNL     1       5.458  -1.805  -0.107  1.00  0.00    -0.303 N 
HETATM    8  C   UNL     1       6.405  -1.844  -1.114  1.00  0.00     0.315 C 
HETATM    9  O   UNL     1       6.510  -1.109  -2.086  1.00  0.00    -0.262 OA
HETATM   10  H   UNL     1       5.333  -2.682   0.393  1.00  0.00     0.171 HD
BRANCH   8  11
HETATM   11  C   UNL     1       7.335  -3.071  -0.978  1.00  0.00     0.310 C 
HETATM   12  N   UNL     1       8.235  -3.207  -2.007  1.00  0.00    -0.349 N 
HETATM   13  H   UNL     1       8.160  -2.544  -2.773  1.00  0.00     0.163 HD
HETATM   14  O   UNL     1       7.206  -3.828  -0.026  1.00  0.00    -0.262 OA
BRANCH  12  15
HETATM   15  C   UNL     1       9.173  -4.297  -2.077  1.00  0.00     0.161 C 
BRANCH  15  16
HETATM   16  C   UNL     1       8.637  -5.454  -2.880  1.00  0.00    -0.040 A 
HETATM   17  C   UNL     1       8.790  -5.490  -4.274  1.00  0.00     0.010 A 
HETATM   18  C   UNL     1       8.311  -6.576  -5.012  1.00  0.00     0.024 A 
HETATM   19  C   UNL     1       7.668  -7.627  -4.362  1.00  0.00     0.034 A 
HETATM   20 CL   UNL     1       7.091  -8.970  -5.270  1.00  0.00    -0.084 Cl
HETATM   21  C   UNL     1       7.492  -7.598  -2.981  1.00  0.00     0.024 A 
HETATM   22  C   UNL     1       7.970  -6.512  -2.243  1.00  0.00     0.010 A 
ENDBRANCH  15  16
ENDBRANCH  12  15
ENDBRANCH   8  11
ENDBRANCH   5   7
BRANCH   4  23
HETATM   23  C   UNL     1       5.681   1.361  -0.388  1.00  0.00     0.732 A 
HETATM   24  N   UNL     1       6.898   1.003  -0.130  1.00  0.00    -0.067 NA
HETATM   25  C   UNL     1       7.849   2.001  -0.154  1.00  0.00     0.065 A 
HETATM   26  C   UNL     1       7.573   3.309  -0.313  1.00  0.00     0.036 A 
HETATM   27  C   UNL     1       9.276   1.526   0.004  1.00  0.00     0.060 C 
HETATM   28  C   UNL     1       8.594   4.409  -0.283  1.00  0.00     0.046 C 
HETATM   29  C   UNL     1       6.160   3.695  -0.533  1.00  0.00     0.268 A 
HETATM   30  C   UNL     1       9.964   3.938   0.208  1.00  0.00     0.005 C 
HETATM   31  C   UNL     1      10.318   2.579  -0.384  1.00  0.00     0.006 C 
HETATM   32  O   UNL     1       5.804   4.864  -0.613  1.00  0.00    -0.267 OA
HETATM   33  N   UNL     1       5.294   2.654  -0.631  1.00  0.00    -0.152 N 
HETATM   34  H   UNL     1       4.304   2.847  -0.746  1.00  0.00     0.188 HD
ENDBRANCH   4  23
TORSDOF 5
