REMARK  5 active torsions:
REMARK  status: ('A' for Active; 'I' for Inactive)
REMARK    1  A    between atoms: C_2  and  C_3 
REMARK    2  A    between atoms: C_3  and  O_4 
REMARK    3  A    between atoms: C_3  and  C_5 
REMARK    4  A    between atoms: N_8  and  C_10 
REMARK    5  A    between atoms: C_10  and  C_11 
ROOT
HETATM    1  C   UNL     1       0.525   3.089   0.009  1.00  0.00     0.022 C 
HETATM    2  C   UNL     1       0.178   2.051   1.085  1.00  0.00     0.035 C 
HETATM    3  C   UNL     1       0.486   0.632   0.631  1.00  0.00     0.235 C 
HETATM    4  N   UNL     1      -0.235   0.332  -0.659  1.00  0.00    -0.066 N 
HETATM    5  H   UNL     1      -1.240   0.285  -0.420  1.00  0.00     0.280 HD
HETATM    6  C   UNL     1      -0.030   1.338  -1.757  1.00  0.00     0.235 C 
HETATM    7  C   UNL     1      -0.291   2.750  -1.252  1.00  0.00     0.035 C 
ENDROOT
BRANCH   1   8
HETATM    8  C   UNL     1       2.047   3.183  -0.285  1.00  0.00     0.155 C 
BRANCH   8   9
HETATM    9  C   UNL     1       2.891   3.510   0.929  1.00  0.00    -0.029 A 
HETATM   10  C   UNL     1       2.735   4.724   1.616  1.00  0.00     0.011 A 
HETATM   11  C   UNL     1       3.495   4.998   2.756  1.00  0.00     0.024 A 
HETATM   12  C   UNL     1       4.418   4.062   3.217  1.00  0.00     0.034 A 
HETATM   13  C   UNL     1       4.595   2.858   2.540  1.00  0.00     0.024 A 
HETATM   14 CL   UNL     1       5.342   4.391   4.628  1.00  0.00    -0.084 Cl
HETATM   15  C   UNL     1       3.839   2.585   1.398  1.00  0.00     0.011 A 
ENDBRANCH   8   9
BRANCH   8  16
HETATM   16  O   UNL     1       2.253   4.148  -1.309  1.00  0.00    -0.391 OA
HETATM   17  H   UNL     1       3.094   4.611  -1.134  1.00  0.00     0.210 HD
ENDBRANCH   8  16
ENDBRANCH   1   8
BRANCH   4  18
HETATM   18  C   UNL     1       0.051  -1.085  -1.148  1.00  0.00     0.295 C 
BRANCH  18  19
HETATM   19  C   UNL     1      -0.509  -2.123  -0.231  1.00  0.00     0.081 A 
HETATM   20  N   UNL     1      -1.672  -1.890   0.399  1.00  0.00    -0.178 NA
HETATM   21  N   UNL     1      -1.867  -3.005   1.137  1.00  0.00    -0.289 N 
HETATM   22  H   UNL     1      -2.713  -3.086   1.696  1.00  0.00     0.188 HD
HETATM   23  C   UNL     1      -0.841  -3.898   1.034  1.00  0.00     0.111 A 
HETATM   24  C   UNL     1       0.057  -3.361   0.145  1.00  0.00     0.049 A 
ENDBRANCH  18  19
ENDBRANCH   4  18
TORSDOF 5
