REMARK  2 active torsions:
REMARK  status: ('A' for Active; 'I' for Inactive)
REMARK    1  A    between atoms: C_8  and  C_9 
REMARK       I    between atoms: N_10  and  C_11 
REMARK    2  A    between atoms: C_11  and  C_12 
ROOT
HETATM    1  C   UNL     1       2.780  -2.610   0.169  1.00  0.00     0.124 C 
HETATM    2  N   UNL     1       3.597  -3.762  -0.207  1.00  0.00    -0.339 N 
HETATM    3  C   UNL     1       3.782  -4.084  -1.538  1.00  0.00     0.260 C 
HETATM    4  O   UNL     1       3.334  -3.415  -2.467  1.00  0.00    -0.267 OA
HETATM    5  C   UNL     1       3.829  -4.627   0.943  1.00  0.00     0.127 C 
HETATM    6  C   UNL     1       2.703  -4.272   1.900  1.00  0.00     0.022 C 
HETATM    7  C   UNL     1       2.528  -2.778   1.675  1.00  0.00     0.032 C 
ENDROOT
BRANCH   1   8
HETATM    8  C   UNL     1       3.451  -1.304  -0.144  1.00  0.00     0.014 A 
HETATM    9  C   UNL     1       2.843  -0.169  -0.658  1.00  0.00     0.034 A 
HETATM   10  C   UNL     1       1.443   0.104  -1.058  1.00  0.00     0.070 C 
HETATM   11  N   UNL     1       3.826   0.770  -0.779  1.00  0.00    -0.282 N 
HETATM   12  H   UNL     1       3.749   1.715  -1.139  1.00  0.00     0.189 HD
HETATM   13  N   UNL     1       5.021   0.357  -0.343  1.00  0.00    -0.179 NA
HETATM   14  C   UNL     1       4.812  -0.909   0.037  1.00  0.00     0.061 A 
HETATM   15  C   UNL     1       5.949  -1.695   0.576  1.00  0.00     0.073 C 
ENDBRANCH   1   8
BRANCH   3  16
HETATM   16  C   UNL     1       4.657  -5.238  -1.843  1.00  0.00     0.108 A 
HETATM   17  C   UNL     1       4.169  -6.624  -1.746  1.00  0.00     0.304 A 
HETATM   18  O   UNL     1       3.028  -6.897  -1.386  1.00  0.00    -0.259 OA
HETATM   19  O   UNL     1       5.089  -7.629  -2.039  1.00  0.00    -0.274 OA
HETATM   20  C   UNL     1       6.385  -7.330  -2.498  1.00  0.00     0.089 A 
HETATM   21  C   UNL     1       6.801  -6.009  -2.649  1.00  0.00    -0.001 A 
HETATM   22  C   UNL     1       7.221  -8.401  -2.805  1.00  0.00     0.038 A 
HETATM   23  C   UNL     1       8.084  -5.758  -3.139  1.00  0.00     0.014 A 
HETATM   24  C   UNL     1       5.886  -4.940  -2.289  1.00  0.00     0.037 A 
HETATM   25  C   UNL     1       8.931  -6.824  -3.460  1.00  0.00     0.001 A 
HETATM   26  C   UNL     1       8.502  -8.143  -3.289  1.00  0.00     0.003 A 
ENDBRANCH   3  16
TORSDOF 2
