REMARK  4 active torsions:
REMARK  status: ('A' for Active; 'I' for Inactive)
REMARK    1  A    between atoms: C_4  and  C_5 
REMARK    2  A    between atoms: C_5  and  C_6 
REMARK    3  A    between atoms: C_7  and  N_8 
REMARK       I    between atoms: N_8  and  C_9 
REMARK    4  A    between atoms: C_9  and  C_10 
ROOT
HETATM    1  N   UNL     1       5.557  -0.130  -0.798  1.00  0.00    -0.321 N 
HETATM    2  C   UNL     1       6.105   0.954  -0.143  1.00  0.00     0.277 C 
HETATM    3  O   UNL     1       6.699   1.838  -0.754  1.00  0.00    -0.266 OA
HETATM    4  H   UNL     1       6.005  -0.295  -1.691  1.00  0.00     0.169 HD
ENDROOT
BRANCH   1   5
HETATM    5  C   UNL     1       4.918  -1.219  -0.192  1.00  0.00     0.041 A 
HETATM    6  C   UNL     1       3.581  -1.137   0.239  1.00  0.00    -0.027 A 
HETATM    7  C   UNL     1       2.993  -2.282   0.806  1.00  0.00     0.010 A 
HETATM    8  C   UNL     1       3.701  -3.481   0.905  1.00  0.00     0.001 A 
HETATM    9  C   UNL     1       5.002  -3.561   0.419  1.00  0.00     0.002 A 
HETATM   10  C   UNL     1       5.605  -2.436  -0.144  1.00  0.00     0.030 A 
BRANCH   6  11
HETATM   11  C   UNL     1       2.710   0.085   0.007  1.00  0.00     0.079 C 
BRANCH  11  12
HETATM   12  C   UNL     1       2.180   0.208  -1.406  1.00  0.00    -0.054 A 
HETATM   13  C   UNL     1       1.146  -0.621  -1.863  1.00  0.00     0.007 A 
HETATM   14  C   UNL     1       0.657  -0.492  -3.164  1.00  0.00     0.001 A 
HETATM   15  C   UNL     1       1.196   0.464  -4.023  1.00  0.00     0.000 A 
HETATM   16  C   UNL     1       2.227   1.291  -3.583  1.00  0.00     0.001 A 
HETATM   17  C   UNL     1       2.716   1.165  -2.282  1.00  0.00     0.007 A 
ENDBRANCH  11  12
ENDBRANCH   6  11
ENDBRANCH   1   5
BRANCH   2  18
HETATM   18  C   UNL     1       6.114   0.996   1.379  1.00  0.00     0.156 A 
HETATM   19  N   UNL     1       4.980   1.161   1.996  1.00  0.00    -0.166 NA
HETATM   20  N   UNL     1       4.987   1.210   3.357  1.00  0.00    -0.242 N 
HETATM   21  C   UNL     1       6.097   1.132   4.164  1.00  0.00     0.272 A 
HETATM   22  H   UNL     1       4.087   1.320   3.814  1.00  0.00     0.192 HD
HETATM   23  O   UNL     1       6.026   1.186   5.386  1.00  0.00    -0.266 OA
HETATM   24  C   UNL     1       7.389   0.984   3.474  1.00  0.00     0.046 A 
HETATM   25  C   UNL     1       7.412   0.898   2.083  1.00  0.00     0.016 A 
HETATM   26  C   UNL     1       8.579   0.943   4.210  1.00  0.00     0.018 A 
HETATM   27  C   UNL     1       8.639   0.761   1.422  1.00  0.00     0.015 A 
HETATM   28  C   UNL     1       9.829   0.723   2.157  1.00  0.00     0.001 A 
HETATM   29  C   UNL     1       9.799   0.816   3.548  1.00  0.00     0.001 A 
ENDBRANCH   2  18
TORSDOF 4
