REMARK  7 active torsions:
REMARK  status: ('A' for Active; 'I' for Inactive)
REMARK    1  A    between atoms: C_2  and  N_3 
REMARK    2  A    between atoms: C_5  and  C_6 
REMARK    3  A    between atoms: C_6  and  N_7 
REMARK       I    between atoms: N_7  and  C_8 
REMARK    4  A    between atoms: C_8  and  C_9 
REMARK    5  A    between atoms: N_15  and  C_16 
REMARK    6  A    between atoms: C_16  and  C_17 
REMARK       I    between atoms: C_17  and  N_18 
REMARK    7  A    between atoms: N_18  and  C_19 
ROOT
HETATM    1  C   UNL     1       8.026   3.758   1.138  1.00  0.00     0.081 C 
HETATM    2  S   UNL     1       8.938   2.307   1.054  1.00  0.00    -0.063 SA
HETATM    3  C   UNL     1       9.872   2.875  -0.241  1.00  0.00     0.116 C 
HETATM    4  C   UNL     1       9.528   4.159  -0.603  1.00  0.00     0.075 C 
HETATM    5  C   UNL     1      10.180   4.702  -1.790  1.00  0.00     0.262 C 
HETATM    6  O   UNL     1       9.987   5.842  -2.208  1.00  0.00    -0.267 OA
HETATM    7  N   UNL     1      11.009   3.800  -2.448  1.00  0.00    -0.299 N 
HETATM    8  C   UNL     1      11.316   2.566  -1.910  1.00  0.00     0.214 C 
HETATM    9  N   UNL     1      10.795   2.077  -0.832  1.00  0.00    -0.235 NA
HETATM   10  C   UNL     1       8.507   4.729   0.257  1.00  0.00    -0.021 C 
HETATM   11  C   UNL     1       7.978   6.125   0.128  1.00  0.00     0.051 C 
ENDROOT
BRANCH   1  12
HETATM   12  C   UNL     1       6.873   3.744   2.026  1.00  0.00     0.259 C 
HETATM   13  N   UNL     1       6.457   4.952   2.545  1.00  0.00    -0.354 N 
HETATM   14  H   UNL     1       7.146   5.697   2.567  1.00  0.00     0.162 HD
HETATM   15  O   UNL     1       6.198   2.740   2.269  1.00  0.00    -0.267 OA
BRANCH  13  16
HETATM   16  C   UNL     1       5.316   5.058   3.449  1.00  0.00     0.156 C 
BRANCH  16  17
HETATM   17  C   UNL     1       3.912   4.861   2.805  1.00  0.00     0.206 C 
HETATM   18  N   UNL     1       3.706   3.436   2.287  1.00  0.00    -0.066 N 
HETATM   19  H   UNL     1       4.642   2.976   2.292  1.00  0.00     0.280 HD
HETATM   20  C   UNL     1       3.294   3.527   0.838  1.00  0.00     0.235 C 
HETATM   21  C   UNL     1       3.862   4.852   0.384  1.00  0.00     0.030 C 
HETATM   22  C   UNL     1       3.656   5.751   1.587  1.00  0.00     0.036 C 
BRANCH  18  23
HETATM   23  C   UNL     1       2.827   2.576   3.147  1.00  0.00     0.231 C 
HETATM   24  C   UNL     1       2.888   1.129   2.694  1.00  0.00     0.034 C 
ENDBRANCH  18  23
ENDBRANCH  16  17
ENDBRANCH  13  16
ENDBRANCH   1  12
BRANCH   7  25
HETATM   25  C   UNL     1      11.498   4.153  -3.766  1.00  0.00     0.236 C 
BRANCH  25  26
HETATM   26  C   UNL     1      12.747   5.019  -3.672  1.00  0.00     0.240 C 
HETATM   27  N   UNL     1      12.465   6.372  -3.710  1.00  0.00    -0.326 N 
HETATM   28  H   UNL     1      11.509   6.646  -3.485  1.00  0.00     0.169 HD
HETATM   29  O   UNL     1      13.852   4.507  -3.525  1.00  0.00    -0.271 OA
BRANCH  27  30
HETATM   30  C   UNL     1      13.375   7.417  -3.966  1.00  0.00     0.036 A 
HETATM   31  C   UNL     1      14.688   7.209  -4.390  1.00  0.00     0.053 A 
HETATM   32  C   UNL     1      15.509   8.296  -4.713  1.00  0.00     0.042 A 
HETATM   33 CL   UNL     1      17.113   7.960  -5.264  1.00  0.00    -0.084 Cl
HETATM   34  C   UNL     1      15.035   9.612  -4.611  1.00  0.00    -0.040 A 
HETATM   35  C   UNL     1      15.887  10.795  -4.976  1.00  0.00     0.050 C 
HETATM   36  C   UNL     1      13.721   9.814  -4.169  1.00  0.00     0.011 A 
HETATM   37  C   UNL     1      12.899   8.727  -3.854  1.00  0.00     0.030 A 
ENDBRANCH  27  30
ENDBRANCH  25  26
ENDBRANCH   7  25
TORSDOF 7
