REMARK  4 active torsions:
REMARK  status: ('A' for Active; 'I' for Inactive)
REMARK    1  A    between atoms: C_8  and  C_9 
REMARK       I    between atoms: C_9  and  N_10 
REMARK    2  A    between atoms: N_10  and  N_11 
REMARK       I    between atoms: N_11  and  C_12 
REMARK    3  A    between atoms: C_12  and  C_13 
REMARK    4  A    between atoms: C_13  and  C_14 
ROOT
HETATM    1  N   UNL     1      -6.683  -0.869  -0.043  1.00  0.00    -0.267 N 
HETATM    2  C   UNL     1      -5.675  -1.813  -0.110  1.00  0.00     0.236 C 
HETATM    3  O   UNL     1      -4.499  -1.508  -0.284  1.00  0.00    -0.272 OA
HETATM    4  H   UNL     1      -7.612  -1.083   0.317  1.00  0.00     0.190 HD
ENDROOT
BRANCH   1   5
HETATM    5  N   UNL     1      -6.314   0.479  -0.043  1.00  0.00    -0.262 N 
HETATM    6  C   UNL     1      -7.106   1.411   0.599  1.00  0.00     0.291 C 
HETATM    7  O   UNL     1      -8.211   1.134   1.065  1.00  0.00    -0.264 OA
HETATM    8  H   UNL     1      -5.348   0.719  -0.278  1.00  0.00     0.190 HD
BRANCH   6   9
HETATM    9  C   UNL     1      -6.493   2.745   0.666  1.00  0.00     0.158 A 
HETATM   10  C   UNL     1      -7.056   3.932   1.220  1.00  0.00     0.028 A 
HETATM   11  C   UNL     1      -8.264   4.285   1.852  1.00  0.00     0.016 A 
HETATM   12  C   UNL     1      -6.090   4.914   1.030  1.00  0.00     0.063 A 
HETATM   13  C   UNL     1      -8.454   5.609   2.266  1.00  0.00     0.001 A 
HETATM   14  C   UNL     1      -7.465   6.570   2.059  1.00  0.00     0.002 A 
HETATM   15  C   UNL     1      -6.257   6.242   1.435  1.00  0.00     0.032 A 
HETATM   16  N   UNL     1      -5.051   4.281   0.407  1.00  0.00    -0.277 N 
HETATM   17  H   UNL     1      -4.169   4.689   0.115  1.00  0.00     0.189 HD
HETATM   18  N   UNL     1      -5.257   2.975   0.170  1.00  0.00    -0.168 NA
ENDBRANCH   6   9
ENDBRANCH   1   5
BRANCH   2  19
HETATM   19  C   UNL     1      -6.200  -3.234   0.031  1.00  0.00     0.114 C 
BRANCH  19  20
HETATM   20  C   UNL     1      -5.163  -4.379   0.001  1.00  0.00    -0.031 C 
HETATM   21  C   UNL     1      -4.155  -4.277   1.174  1.00  0.00     0.014 C 
HETATM   22  C   UNL     1      -3.173  -5.462   1.153  1.00  0.00    -0.013 C 
HETATM   23  C   UNL     1      -2.413  -5.467  -0.184  1.00  0.00     0.009 C 
HETATM   24  C   UNL     1      -3.957  -6.775   1.296  1.00  0.00     0.009 C 
HETATM   25  C   UNL     1      -3.401  -5.614  -1.354  1.00  0.00    -0.013 C 
HETATM   26  C   UNL     1      -4.385  -4.430  -1.339  1.00  0.00     0.014 C 
HETATM   27  C   UNL     1      -4.184  -6.927  -1.195  1.00  0.00     0.009 C 
HETATM   28  C   UNL     1      -4.952  -6.920   0.135  1.00  0.00    -0.013 C 
HETATM   29  C   UNL     1      -5.925  -5.729   0.151  1.00  0.00     0.014 C 
ENDBRANCH  19  20
ENDBRANCH   2  19
TORSDOF 4
