REMARK  6 active torsions:
REMARK  status: ('A' for Active; 'I' for Inactive)
REMARK    1  A    between atoms: C_4  and  C_5 
REMARK    2  A    between atoms: C_5  and  C_6 
REMARK    3  A    between atoms: C_6  and  N_7 
REMARK    4  A    between atoms: C_16  and  C_17 
REMARK    5  A    between atoms: C_24  and  C_25 
REMARK    6  A    between atoms: C_24  and  C_29 
ROOT
HETATM    1  N   UNL     1       4.995  -1.193  -0.535  1.00  0.00    -0.284 N 
HETATM    2  C   UNL     1       5.645  -2.401  -0.782  1.00  0.00     0.331 A 
HETATM    3  O   UNL     1       5.086  -3.491  -0.799  1.00  0.00    -0.246 OA
HETATM    4  N   UNL     1       6.984  -2.318  -1.010  1.00  0.00    -0.275 N 
HETATM    5  C   UNL     1       7.714  -1.182  -1.006  1.00  0.00     0.262 A 
HETATM    6  O   UNL     1       8.919  -1.166  -1.192  1.00  0.00    -0.267 OA
HETATM    7  C   UNL     1       6.999   0.072  -0.749  1.00  0.00     0.100 A 
HETATM    8  C   UNL     1       5.682   0.009  -0.500  1.00  0.00     0.128 A 
HETATM    9  N   UNL     1       5.006   1.167  -0.209  1.00  0.00    -0.326 N 
HETATM   10  C   UNL     1       5.588   2.345  -0.149  1.00  0.00     0.138 A 
HETATM   11  N   UNL     1       6.867   2.502  -0.384  1.00  0.00    -0.345 N 
HETATM   12  H   UNL     1       7.275   3.436  -0.312  1.00  0.00     0.163 HD
HETATM   13  C   UNL     1       7.800   1.354  -0.796  1.00  0.00     0.264 A 
HETATM   14  H   UNL     1       7.464  -3.194  -1.181  1.00  0.00     0.173 HD
HETATM   15  H   UNL     1       4.012   1.170   0.004  1.00  0.00     0.169 HD
ENDROOT
BRANCH   1  16
HETATM   16  C   UNL     1       3.546  -1.301  -0.317  1.00  0.00     0.140 C 
BRANCH  16  17
HETATM   17  C   UNL     1       3.203  -1.705   1.125  1.00  0.00     0.059 C 
BRANCH  17  18
HETATM   18  C   UNL     1       1.722  -1.886   1.344  1.00  0.00    -0.057 A 
HETATM   19  C   UNL     1       1.007  -2.851   0.617  1.00  0.00     0.007 A 
HETATM   20  C   UNL     1      -0.360  -3.033   0.831  1.00  0.00     0.001 A 
HETATM   21  C   UNL     1      -1.025  -2.268   1.785  1.00  0.00     0.000 A 
HETATM   22  C   UNL     1      -0.322  -1.322   2.528  1.00  0.00     0.001 A 
HETATM   23  C   UNL     1       1.044  -1.131   2.311  1.00  0.00     0.007 A 
ENDBRANCH  17  18
ENDBRANCH  16  17
ENDBRANCH   1  16
BRANCH  13  24
HETATM   24  C   UNL     1       8.318   1.692  -2.198  1.00  0.00     0.426 C 
HETATM   25  F   UNL     1       7.275   1.650  -3.071  1.00  0.00    -0.168 F 
HETATM   26  F   UNL     1       8.778   2.967  -2.224  1.00  0.00    -0.168 F 
HETATM   27  F   UNL     1       9.275   0.892  -2.677  1.00  0.00    -0.168 F 
ENDBRANCH  13  24
BRANCH  13  28
HETATM   28  C   UNL     1       9.015   1.419   0.138  1.00  0.00     0.426 C 
HETATM   29  F   UNL     1       8.686   0.900   1.348  1.00  0.00    -0.168 F 
HETATM   30  F   UNL     1      10.129   0.822  -0.292  1.00  0.00    -0.168 F 
HETATM   31  F   UNL     1       9.319   2.727   0.365  1.00  0.00    -0.168 F 
ENDBRANCH  13  28
BRANCH  10  32
HETATM   32  C   UNL     1       4.745   3.472   0.195  1.00  0.00     0.118 A 
HETATM   33  O   UNL     1       3.410   3.327   0.465  1.00  0.00    -0.319 OA
HETATM   34  C   UNL     1       2.912   4.560   0.736  1.00  0.00     0.142 A 
HETATM   35  C   UNL     1       3.905   5.505   0.647  1.00  0.00     0.027 A 
HETATM   36  C   UNL     1       5.090   4.807   0.299  1.00  0.00     0.043 A 
ENDBRANCH  10  32
TORSDOF 6
