REMARK  5 active torsions:
REMARK  status: ('A' for Active; 'I' for Inactive)
REMARK    1  A    between atoms: C_2  and  O_3 
REMARK    2  A    between atoms: C_4  and  C_5 
REMARK    3  A    between atoms: C_5  and  O_6 
REMARK    4  A    between atoms: C_9  and  C_10 
REMARK    5  A    between atoms: C_22  and  O_23 
ROOT
HETATM    1  C   UNL     1       0.978   0.229  -0.456  1.00  0.00     0.047 C 
HETATM    2  C   UNL     1       2.368   0.391   0.190  1.00  0.00     0.073 C 
HETATM    3  C   UNL     1       3.084   1.658  -0.406  1.00  0.00     0.133 C 
HETATM    4  C   UNL     1       3.666   1.484  -1.851  1.00  0.00     0.074 C 
HETATM    5  C   UNL     1       3.850   0.052  -2.239  1.00  0.00     0.030 A 
HETATM    6  C   UNL     1       3.650  -1.010  -1.386  1.00  0.00     0.042 A 
HETATM    7  N   UNL     1       3.878  -2.150  -2.102  1.00  0.00    -0.279 N 
HETATM    8  H   UNL     1       3.822  -3.117  -1.796  1.00  0.00     0.189 HD
HETATM    9  N   UNL     1       4.168  -1.899  -3.397  1.00  0.00    -0.149 NA
HETATM   10  C   UNL     1       4.135  -0.574  -3.454  1.00  0.00     0.190 A 
HETATM   11  C   UNL     1       3.192  -0.919   0.015  1.00  0.00     0.097 C 
ENDROOT
BRANCH   4  12
HETATM   12  C   UNL     1       5.006   2.158  -2.130  1.00  0.00    -0.048 A 
HETATM   13  C   UNL     1       6.222   1.667  -1.612  1.00  0.00     0.009 A 
HETATM   14  C   UNL     1       7.429   2.324  -1.861  1.00  0.00     0.024 A 
HETATM   15  C   UNL     1       7.437   3.482  -2.631  1.00  0.00     0.034 A 
HETATM   16 CL   UNL     1       8.922   4.296  -2.934  1.00  0.00    -0.084 Cl
HETATM   17  C   UNL     1       6.249   3.988  -3.153  1.00  0.00     0.024 A 
HETATM   18  C   UNL     1       5.040   3.331  -2.903  1.00  0.00     0.009 A 
ENDBRANCH   4  12
BRANCH   3  19
HETATM   19  C   UNL     1       4.102   2.193   0.582  1.00  0.00     0.266 C 
HETATM   20  O   UNL     1       4.729   1.504   1.377  1.00  0.00    -0.265 OA
BRANCH  19  21
HETATM   21  O   UNL     1       4.179   3.552   0.491  1.00  0.00    -0.326 OA
HETATM   22  C   UNL     1       5.118   4.153   1.383  1.00  0.00     0.213 C 
ENDBRANCH  19  21
ENDBRANCH   3  19
BRANCH   2  23
HETATM   23  O   UNL     1       2.092   0.575   1.590  1.00  0.00    -0.389 OA
HETATM   24  H   UNL     1       2.948   0.568   2.067  1.00  0.00     0.210 HD
ENDBRANCH   2  23
BRANCH  10  25
HETATM   25  O   UNL     1       4.344  -0.049  -4.656  1.00  0.00    -0.343 OA
HETATM   26  H   UNL     1       4.510  -0.815  -5.231  1.00  0.00     0.219 HD
ENDBRANCH  10  25
TORSDOF 5
