REMARK  2 active torsions:
REMARK  status: ('A' for Active; 'I' for Inactive)
REMARK       I    between atoms: C_2  and  N_3 
REMARK    1  A    between atoms: N_3  and  C_4 
REMARK    2  A    between atoms: C_11  and  N_12 
REMARK       I    between atoms: N_12  and  C_13 
ROOT
HETATM    1  C   UNL     1       2.756  -1.305  -2.054  1.00  0.00     0.035 A 
HETATM    2  C   UNL     1       2.979  -2.672  -2.232  1.00  0.00     0.038 A 
HETATM    3  C   UNL     1       2.352  -3.313  -3.292  1.00  0.00    -0.041 A 
HETATM    4  C   UNL     1       1.506  -2.623  -4.183  1.00  0.00    -0.019 A 
HETATM    5  C   UNL     1       1.008  -3.557  -5.169  1.00  0.00    -0.019 A 
HETATM    6  C   UNL     1       1.539  -4.833  -4.896  1.00  0.00    -0.041 A 
HETATM    7  C   UNL     1       1.236  -5.941  -5.680  1.00  0.00     0.038 A 
HETATM    8  C   UNL     1       0.376  -5.776  -6.766  1.00  0.00     0.035 A 
HETATM    9  C   UNL     1      -0.144  -4.488  -7.040  1.00  0.00     0.030 A 
HETATM   10  C   UNL     1       0.164  -3.376  -6.245  1.00  0.00     0.015 A 
HETATM   11  C   UNL     1       2.443  -4.775  -3.678  1.00  0.00     0.079 A 
HETATM   12  C   UNL     1       1.278  -1.270  -4.017  1.00  0.00     0.015 A 
HETATM   13  C   UNL     1       1.907  -0.616  -2.949  1.00  0.00     0.030 A 
ENDROOT
BRANCH   1  14
HETATM   14  N   UNL     1       3.333  -0.546  -1.013  1.00  0.00    -0.328 N 
HETATM   15  C   UNL     1       4.197  -0.989  -0.028  1.00  0.00     0.218 C 
HETATM   16  C   UNL     1       4.606   0.112   0.921  1.00  0.00     0.117 C 
HETATM   17  O   UNL     1       4.645  -2.122   0.106  1.00  0.00    -0.274 OA
HETATM   18  H   UNL     1       3.087   0.435  -0.996  1.00  0.00     0.169 HD
ENDBRANCH   1  14
BRANCH   8  19
HETATM   19  N   UNL     1      -0.024  -6.793  -7.653  1.00  0.00    -0.328 N 
HETATM   20  C   UNL     1       0.155  -8.141  -7.704  1.00  0.00     0.218 C 
HETATM   21  C   UNL     1       0.854  -8.894  -6.613  1.00  0.00     0.117 C 
HETATM   22  O   UNL     1      -0.297  -8.746  -8.682  1.00  0.00    -0.274 OA
HETATM   23  H   UNL     1      -0.574  -6.491  -8.450  1.00  0.00     0.169 HD
ENDBRANCH   8  19
TORSDOF 2
