REMARK  8 active torsions:
REMARK  status: ('A' for Active; 'I' for Inactive)
REMARK    1  A    between atoms: C_2  and  N_3 
REMARK    2  A    between atoms: C_2  and  C_17 
REMARK    3  A    between atoms: N_3  and  C_6 
REMARK    4  A    between atoms: C_6  and  C_7 
REMARK    5  A    between atoms: C_7  and  O_8 
REMARK    6  A    between atoms: C_7  and  C_9 
REMARK    7  A    between atoms: C_11  and  O_12 
REMARK    8  A    between atoms: C_17  and  C_18 
ROOT
HETATM    1  N   UNL     1       2.956   3.223  -1.540  1.00  0.00    -0.068 N 
HETATM    2  H   UNL     1       2.496   2.660  -0.793  1.00  0.00     0.277 HD
HETATM    3  H   UNL     1       2.508   4.154  -1.479  1.00  0.00     0.277 HD
ENDROOT
BRANCH   1   4
HETATM    4  C   UNL     1       4.427   3.262  -1.228  1.00  0.00     0.188 C 
HETATM    5  C   UNL     1       5.102   4.325  -2.088  1.00  0.00     0.040 C 
BRANCH   4   6
HETATM    6  C   UNL     1       4.642   3.570   0.270  1.00  0.00     0.099 C 
BRANCH   6   7
HETATM    7  C   UNL     1       3.996   2.539   1.145  1.00  0.00     0.078 A 
HETATM    8  S   UNL     1       4.582   2.242   2.724  1.00  0.00    -0.073 SA
HETATM    9  C   UNL     1       3.354   1.059   2.958  1.00  0.00     0.035 A 
HETATM   10  C   UNL     1       2.574   0.978   1.802  1.00  0.00     0.074 A 
HETATM   11  C   UNL     1       3.100   0.260   4.084  1.00  0.00     0.021 A 
HETATM   12  N   UNL     1       2.939   1.844   0.775  1.00  0.00    -0.245 NA
HETATM   13  C   UNL     1       1.510   0.054   1.767  1.00  0.00     0.033 A 
HETATM   14  C   UNL     1       1.248  -0.747   2.883  1.00  0.00     0.002 A 
HETATM   15  C   UNL     1       2.033  -0.642   4.027  1.00  0.00     0.002 A 
ENDBRANCH   6   7
ENDBRANCH   4   6
ENDBRANCH   1   4
BRANCH   1  16
HETATM   16  C   UNL     1       2.528   2.630  -2.854  1.00  0.00     0.269 C 
BRANCH  16  17
HETATM   17  C   UNL     1       1.040   2.974  -3.087  1.00  0.00     0.177 C 
BRANCH  17  18
HETATM   18  O   UNL     1       0.868   4.355  -2.728  1.00  0.00    -0.389 OA
HETATM   19  H   UNL     1      -0.062   4.579  -2.940  1.00  0.00     0.210 HD
ENDBRANCH  17  18
BRANCH  17  20
HETATM   20  C   UNL     1       0.107   2.088  -2.290  1.00  0.00    -0.025 A 
HETATM   21  C   UNL     1      -0.205   0.805  -2.783  1.00  0.00     0.046 A 
HETATM   22  C   UNL     1      -1.055  -0.048  -2.074  1.00  0.00     0.068 A 
HETATM   23  C   UNL     1      -1.600   0.383  -0.865  1.00  0.00     0.037 A 
HETATM   24  C   UNL     1      -1.304   1.649  -0.363  1.00  0.00     0.003 A 
HETATM   25  C   UNL     1      -0.450   2.496  -1.068  1.00  0.00     0.010 A 
BRANCH  22  26
HETATM   26  O   UNL     1      -1.420  -1.310  -2.444  1.00  0.00    -0.356 OA
HETATM   27  C   UNL     1      -0.992  -1.772  -3.719  1.00  0.00     0.210 C 
ENDBRANCH  22  26
ENDBRANCH  17  20
ENDBRANCH  16  17
ENDBRANCH   1  16
TORSDOF 8
