REMARK  7 active torsions:
REMARK  status: ('A' for Active; 'I' for Inactive)
REMARK    1  A    between atoms: C_7  and  C_8 
REMARK    2  A    between atoms: C_8  and  C_9 
REMARK       I    between atoms: C_9  and  N_10 
REMARK    3  A    between atoms: N_10  and  N_11 
REMARK       I    between atoms: N_11  and  C_12 
REMARK    4  A    between atoms: C_12  and  C_13 
REMARK    5  A    between atoms: C_23  and  O_24 
REMARK    6  A    between atoms: O_24  and  C_25 
REMARK    7  A    between atoms: C_25  and  C_26 
ROOT
HETATM    1  C   UNL     1       1.192   0.249  -0.444  1.00  0.00     0.068 C 
HETATM    2  C   UNL     1       2.650   0.224  -0.155  1.00  0.00     0.013 A 
HETATM    3  N   UNL     1       3.417   1.359  -0.231  1.00  0.00    -0.359 N 
HETATM    4  H   UNL     1       3.075   2.278  -0.478  1.00  0.00     0.166 HD
HETATM    5  C   UNL     1       4.726   1.080   0.081  1.00  0.00     0.043 A 
HETATM    6  C   UNL     1       4.800  -0.282   0.364  1.00  0.00     0.002 A 
HETATM    7  C   UNL     1       3.484  -0.826   0.202  1.00  0.00    -0.015 A 
HETATM    8  C   UNL     1       5.839   1.924   0.133  1.00  0.00     0.033 A 
HETATM    9  C   UNL     1       7.071   1.362   0.495  1.00  0.00     0.039 A 
HETATM   10  C   UNL     1       7.183   0.005   0.795  1.00  0.00     0.070 A 
HETATM   11  C   UNL     1       6.053  -0.821   0.723  1.00  0.00     0.051 A 
ENDROOT
BRANCH   7  12
HETATM   12  C   UNL     1       3.088  -2.260   0.386  1.00  0.00     0.146 C 
BRANCH  12  13
HETATM   13  C   UNL     1       2.779  -3.003  -0.904  1.00  0.00     0.240 C 
HETATM   14  N   UNL     1       3.488  -2.610  -2.020  1.00  0.00    -0.267 N 
HETATM   15  H   UNL     1       4.011  -1.735  -2.063  1.00  0.00     0.190 HD
HETATM   16  O   UNL     1       1.998  -3.959  -0.924  1.00  0.00    -0.272 OA
BRANCH  14  17
HETATM   17  N   UNL     1       3.205  -3.229  -3.237  1.00  0.00    -0.262 N 
HETATM   18  C   UNL     1       3.720  -2.713  -4.407  1.00  0.00     0.288 C 
HETATM   19  O   UNL     1       4.384  -1.682  -4.464  1.00  0.00    -0.264 OA
HETATM   20  H   UNL     1       2.656  -4.091  -3.233  1.00  0.00     0.190 HD
BRANCH  18  21
HETATM   21  C   UNL     1       3.407  -3.528  -5.622  1.00  0.00     0.125 A 
HETATM   22  N   UNL     1       2.657  -4.648  -5.424  1.00  0.00    -0.255 NA
HETATM   23  C   UNL     1       2.388  -5.392  -6.518  1.00  0.00     0.117 A 
HETATM   24  C   UNL     1       2.830  -5.077  -7.794  1.00  0.00     0.019 A 
HETATM   25  C   UNL     1       3.594  -3.926  -7.967  1.00  0.00     0.004 A 
HETATM   26  C   UNL     1       3.891  -3.132  -6.863  1.00  0.00     0.037 A 
ENDBRANCH  18  21
ENDBRANCH  14  17
ENDBRANCH  12  13
ENDBRANCH   7  12
BRANCH  10  27
HETATM   27  O   UNL     1       8.329  -0.643   1.173  1.00  0.00    -0.347 OA
BRANCH  27  28
HETATM   28  C   UNL     1       9.511   0.147   1.310  1.00  0.00     0.214 C 
BRANCH  28  29
HETATM   29  C   UNL     1      10.673  -0.691   1.800  1.00  0.00    -0.034 A 
HETATM   30  C   UNL     1      10.718  -2.081   1.618  1.00  0.00     0.009 A 
HETATM   31  C   UNL     1      11.818  -2.821   2.056  1.00  0.00     0.001 A 
HETATM   32  C   UNL     1      12.893  -2.181   2.670  1.00  0.00     0.000 A 
HETATM   33  C   UNL     1      12.870  -0.799   2.843  1.00  0.00     0.001 A 
HETATM   34  C   UNL     1      11.770  -0.058   2.407  1.00  0.00     0.009 A 
ENDBRANCH  28  29
ENDBRANCH  27  28
ENDBRANCH  10  27
TORSDOF 7
