REMARK  5 active torsions:
REMARK  status: ('A' for Active; 'I' for Inactive)
REMARK    1  A    between atoms: C_8  and  N_9 
REMARK       I    between atoms: N_9  and  C_10 
REMARK       I    between atoms: C_10  and  N_11 
REMARK    2  A    between atoms: N_11  and  C_12 
REMARK    3  A    between atoms: C_13  and  O_14 
REMARK    4  A    between atoms: O_14  and  C_15 
REMARK    5  A    between atoms: C_15  and  C_16 
ROOT
HETATM    1  N   UNL     1       1.270  -3.608   0.502  1.00  0.00    -0.305 N 
HETATM    2  C   UNL     1       1.558  -2.318   0.097  1.00  0.00     0.325 C 
HETATM    3  N   UNL     1       0.492  -1.790  -0.609  1.00  0.00    -0.306 N 
HETATM    4  O   UNL     1       2.597  -1.716   0.337  1.00  0.00    -0.247 OA
HETATM    5  H   UNL     1       0.299  -3.789   0.707  1.00  0.00     0.171 HD
HETATM    6  H   UNL     1      -0.072  -2.458  -1.121  1.00  0.00     0.171 HD
ENDROOT
BRANCH   3   7
HETATM    7  C   UNL     1       0.312  -0.439  -0.970  1.00  0.00     0.070 A 
HETATM    8  C   UNL     1      -0.570  -0.151  -2.025  1.00  0.00     0.097 A 
HETATM    9  C   UNL     1      -0.857   1.167  -2.385  1.00  0.00     0.063 A 
HETATM   10  C   UNL     1      -0.229   2.208  -1.705  1.00  0.00     0.036 A 
HETATM   11 CL   UNL     1      -0.568   3.837  -2.141  1.00  0.00    -0.084 Cl
HETATM   12  C   UNL     1       0.670   1.940  -0.674  1.00  0.00     0.026 A 
HETATM   13  C   UNL     1       0.937   0.617  -0.304  1.00  0.00     0.034 A 
BRANCH   8  14
HETATM   14  O   UNL     1      -1.163  -1.202  -2.683  1.00  0.00    -0.340 OA
BRANCH  14  15
HETATM   15  C   UNL     1      -0.731  -1.261  -4.058  1.00  0.00     0.293 C 
BRANCH  15  16
HETATM   16  C   UNL     1      -0.866  -2.678  -4.589  1.00  0.00     0.408 C 
HETATM   17  F   UNL     1      -0.159  -3.553  -3.837  1.00  0.00    -0.169 F 
HETATM   18  F   UNL     1      -2.153  -3.087  -4.599  1.00  0.00    -0.169 F 
HETATM   19  F   UNL     1      -0.402  -2.760  -5.857  1.00  0.00    -0.169 F 
ENDBRANCH  15  16
ENDBRANCH  14  15
ENDBRANCH   8  14
ENDBRANCH   3   7
BRANCH   1  20
HETATM   20  C   UNL     1       2.188  -4.488   1.049  1.00  0.00     0.086 A 
HETATM   21  C   UNL     1       1.828  -5.529   1.881  1.00  0.00     0.052 A 
HETATM   22  C   UNL     1       0.527  -5.966   2.437  1.00  0.00     0.072 C 
HETATM   23  N   UNL     1       2.996  -6.162   2.206  1.00  0.00    -0.280 N 
HETATM   24  H   UNL     1       3.127  -6.960   2.818  1.00  0.00     0.189 HD
HETATM   25  N   UNL     1       4.078  -5.641   1.617  1.00  0.00    -0.177 NA
HETATM   26  C   UNL     1       3.599  -4.613   0.900  1.00  0.00     0.079 A 
HETATM   27  C   UNL     1       4.538  -3.839   0.049  1.00  0.00     0.075 C 
ENDBRANCH   1  20
TORSDOF 5
