REMARK  6 active torsions:
REMARK  status: ('A' for Active; 'I' for Inactive)
REMARK    1  A    between atoms: C_2  and  C_3 
REMARK    2  A    between atoms: C_7  and  N_8 
REMARK    3  A    between atoms: N_8  and  C_9 
REMARK    4  A    between atoms: C_12  and  N_13 
REMARK       I    between atoms: N_13  and  C_14 
REMARK       I    between atoms: C_14  and  N_15 
REMARK    5  A    between atoms: N_15  and  C_16 
REMARK    6  A    between atoms: N_24  and  C_25 
ROOT
HETATM    1  C   UNL     1       2.565  -0.553  -1.713  1.00  0.00     0.130 A 
HETATM    2  N   UNL     1       2.832  -1.870  -1.715  1.00  0.00    -0.213 NA
HETATM    3  C   UNL     1       3.744  -2.222  -2.643  1.00  0.00     0.169 A 
HETATM    4  C   UNL     1       4.371  -1.349  -3.519  1.00  0.00     0.078 A 
HETATM    5  C   UNL     1       4.074   0.020  -3.405  1.00  0.00     0.121 A 
HETATM    6  N   UNL     1       3.148   0.383  -2.489  1.00  0.00    -0.221 NA
HETATM    7  N   UNL     1       4.259  -3.489  -2.911  1.00  0.00    -0.214 N 
HETATM    8  N   UNL     1       5.127  -3.456  -3.968  1.00  0.00    -0.170 NA
HETATM    9  C   UNL     1       5.189  -2.172  -4.328  1.00  0.00     0.069 A 
HETATM   10  C   UNL     1       6.053  -1.778  -5.469  1.00  0.00     0.073 C 
ENDROOT
BRANCH   5  11
HETATM   11  N   UNL     1       4.705   0.984  -4.196  1.00  0.00    -0.272 NA
HETATM   12  H   UNL     1       5.596   0.637  -4.528  1.00  0.00     0.129 HD
BRANCH  11  13
HETATM   13  C   UNL     1       4.776   2.352  -3.662  1.00  0.00     0.062 C 
HETATM   14  C   UNL     1       6.090   2.992  -4.133  1.00  0.00     0.022 C 
HETATM   15  C   UNL     1       6.140   3.218  -5.644  1.00  0.00     0.027 C 
HETATM   16  C   UNL     1       4.890   3.865  -6.256  1.00  0.00     0.086 C 
HETATM   17  C   UNL     1       3.562   3.402  -5.646  1.00  0.00     0.027 C 
HETATM   18  C   UNL     1       3.580   3.184  -4.134  1.00  0.00     0.022 C 
BRANCH  16  19
HETATM   19  N   UNL     1       4.998   5.315  -6.405  1.00  0.00    -0.339 N 
HETATM   20  C   UNL     1       5.163   6.227  -5.397  1.00  0.00     0.317 C 
HETATM   21  N   UNL     1       5.311   7.489  -5.926  1.00  0.00    -0.335 N 
HETATM   22  O   UNL     1       5.202   5.962  -4.208  1.00  0.00    -0.247 OA
HETATM   23  H   UNL     1       5.711   7.472  -6.853  1.00  0.00     0.165 HD
HETATM   24  H   UNL     1       4.555   5.701  -7.226  1.00  0.00     0.164 HD
BRANCH  21  25
HETATM   25  C   UNL     1       5.624   8.685  -5.127  1.00  0.00     0.023 C 
HETATM   26  C   UNL     1       7.004   8.551  -4.463  1.00  0.00     0.037 C 
HETATM   27  C   UNL     1       5.655   9.891  -6.085  1.00  0.00     0.037 C 
HETATM   28  C   UNL     1       4.547   8.949  -4.062  1.00  0.00     0.037 C 
ENDBRANCH  21  25
ENDBRANCH  16  19
ENDBRANCH  11  13
ENDBRANCH   5  11
BRANCH   1  29
HETATM   29  C   UNL     1       1.545  -0.068  -0.718  1.00  0.00     0.076 C 
HETATM   30  C   UNL     1       2.196   0.298   0.606  1.00  0.00     0.013 C 
ENDBRANCH   1  29
BRANCH   7  31
HETATM   31  C   UNL     1       4.023  -4.731  -2.242  1.00  0.00     0.060 A 
HETATM   32  C   UNL     1       3.171  -4.833  -1.138  1.00  0.00     0.032 A 
HETATM   33  C   UNL     1       2.990  -6.064  -0.494  1.00  0.00     0.009 A 
HETATM   34  C   UNL     1       3.648  -7.212  -0.947  1.00  0.00    -0.062 A 
HETATM   35  C   UNL     1       3.488  -8.523  -0.236  1.00  0.00     0.048 C 
HETATM   36  C   UNL     1       4.504  -7.112  -2.047  1.00  0.00     0.009 A 
HETATM   37  C   UNL     1       4.687  -5.885  -2.692  1.00  0.00     0.032 A 
ENDBRANCH   7  31
TORSDOF 6
