REMARK  9 active torsions:
REMARK  status: ('A' for Active; 'I' for Inactive)
REMARK    1  A    between atoms: C_8  and  C_9 
REMARK    2  A    between atoms: C_9  and  C_10 
REMARK    3  A    between atoms: N_14  and  C_15 
REMARK    4  A    between atoms: C_15  and  C_16 
REMARK    5  A    between atoms: C_27  and  N_28 
REMARK    6  A    between atoms: N_28  and  C_29 
REMARK    7  A    between atoms: C_29  and  C_30 
REMARK    8  A    between atoms: C_30  and  O_31 
REMARK    9  A    between atoms: C_30  and  C_32 
ROOT
HETATM    1  C   UNL     1       1.003   0.113   0.664  1.00  0.00     0.052 C 
HETATM    2  C   UNL     1       2.465   0.152   0.348  1.00  0.00    -0.015 A 
HETATM    3  C   UNL     1       3.183  -1.163   0.201  1.00  0.00     0.144 A 
HETATM    4  N   UNL     1       2.545  -2.263   0.446  1.00  0.00    -0.217 NA
HETATM    5  N   UNL     1       4.509  -1.118  -0.196  1.00  0.00    -0.272 N 
HETATM    6  C   UNL     1       5.203  -2.299  -0.399  1.00  0.00     0.266 A 
HETATM    7  O   UNL     1       6.397  -2.357  -0.706  1.00  0.00    -0.267 OA
HETATM    8  C   UNL     1       4.428  -3.561  -0.220  1.00  0.00     0.074 A 
HETATM    9  C   UNL     1       3.167  -3.466   0.260  1.00  0.00     0.121 A 
HETATM   10  C   UNL     1       5.168   0.094  -0.366  1.00  0.00     0.102 A 
HETATM   11  C   UNL     1       4.546   1.265  -0.190  1.00  0.00     0.018 A 
HETATM   12  C   UNL     1       3.151   1.290   0.157  1.00  0.00     0.012 A 
ENDROOT
BRANCH   8  13
HETATM   13  C   UNL     1       5.078  -4.816  -0.580  1.00  0.00     0.045 C 
BRANCH  13  14
HETATM   14  C   UNL     1       4.707  -5.629  -1.579  1.00  0.00     0.077 A 
HETATM   15  S   UNL     1       3.438  -5.390  -2.710  1.00  0.00    -0.055 SA
HETATM   16  C   UNL     1       3.621  -6.997  -3.397  1.00  0.00     0.149 A 
HETATM   17  S   UNL     1       2.554  -7.580  -4.540  1.00  0.00    -0.052 SA
HETATM   18  N   UNL     1       4.707  -7.628  -2.828  1.00  0.00    -0.294 N 
HETATM   19  C   UNL     1       5.357  -6.944  -1.813  1.00  0.00     0.266 A 
HETATM   20  O   UNL     1       6.290  -7.361  -1.141  1.00  0.00    -0.266 OA
BRANCH  18  21
HETATM   21  C   UNL     1       5.168  -8.969  -3.177  1.00  0.00     0.172 C 
BRANCH  21  22
HETATM   22  C   UNL     1       6.171  -8.959  -4.311  1.00  0.00    -0.037 A 
HETATM   23  C   UNL     1       7.519  -8.646  -4.060  1.00  0.00     0.048 A 
HETATM   24  C   UNL     1       8.398  -8.648  -5.123  1.00  0.00     0.105 A 
HETATM   25  C   UNL     1       7.990  -8.938  -6.402  1.00  0.00     0.105 A 
HETATM   26  O   UNL     1       9.730  -8.381  -5.052  1.00  0.00    -0.323 OA
HETATM   27  O   UNL     1       9.011  -8.887  -7.299  1.00  0.00    -0.323 OA
HETATM   28  C   UNL     1       6.680  -9.244  -6.692  1.00  0.00     0.040 A 
HETATM   29  C   UNL     1      10.113  -8.542  -6.434  1.00  0.00     0.352 A 
HETATM   30  C   UNL     1       5.765  -9.257  -5.633  1.00  0.00     0.012 A 
ENDBRANCH  21  22
ENDBRANCH  18  21
ENDBRANCH  13  14
ENDBRANCH   8  13
BRANCH   9  31
HETATM   31  N   UNL     1       2.382  -4.575   0.553  1.00  0.00    -0.274 NA
HETATM   32  H   UNL     1       1.438  -4.234   0.763  1.00  0.00     0.129 HD
BRANCH  31  33
HETATM   33  C   UNL     1       2.790  -5.635   1.485  1.00  0.00     0.130 C 
BRANCH  33  34
HETATM   34  C   UNL     1       1.594  -6.123   2.342  1.00  0.00     0.164 C 
BRANCH  34  35
HETATM   35  O   UNL     1       0.913  -4.999   2.920  1.00  0.00    -0.390 OA
HETATM   36  H   UNL     1       1.538  -4.254   2.946  1.00  0.00     0.210 HD
ENDBRANCH  34  35
BRANCH  34  37
HETATM   37  C   UNL     1       0.557  -6.998   1.665  1.00  0.00    -0.029 A 
HETATM   38  C   UNL     1       0.482  -7.184   0.277  1.00  0.00     0.010 A 
HETATM   39  C   UNL     1      -0.496  -8.010  -0.285  1.00  0.00     0.001 A 
HETATM   40  C   UNL     1      -1.417  -8.662   0.531  1.00  0.00     0.000 A 
HETATM   41  C   UNL     1      -1.366  -8.483   1.911  1.00  0.00     0.001 A 
HETATM   42  C   UNL     1      -0.389  -7.657   2.471  1.00  0.00     0.010 A 
ENDBRANCH  34  37
ENDBRANCH  33  34
ENDBRANCH  31  33
ENDBRANCH   9  31
TORSDOF 9
