REMARK  5 active torsions:
REMARK  status: ('A' for Active; 'I' for Inactive)
REMARK    1  A    between atoms: C_9  and  C_10 
REMARK    2  A    between atoms: C_10  and  N_11 
REMARK    3  A    between atoms: N_11  and  C_14 
REMARK    4  A    between atoms: C_14  and  C_15 
REMARK    5  A    between atoms: C_16  and  C_17 
ROOT
HETATM    1  C   UNL     1      -6.588  -4.485  -3.781  1.00  0.00    -0.036 A 
HETATM    2  C   UNL     1      -7.633  -4.223  -2.888  1.00  0.00     0.013 A 
HETATM    3  C   UNL     1      -8.773  -5.032  -2.883  1.00  0.00     0.023 A 
HETATM    4  C   UNL     1      -8.878  -6.104  -3.775  1.00  0.00     0.044 A 
HETATM    5  C   UNL     1     -10.046  -6.936  -3.765  1.00  0.00     0.099 C 
HETATM    6  N   UNL     1     -10.991  -7.608  -3.751  1.00  0.00    -0.191 NA
HETATM    7  C   UNL     1      -7.837  -6.363  -4.672  1.00  0.00     0.023 A 
HETATM    8  C   UNL     1      -6.695  -5.556  -4.675  1.00  0.00     0.013 A 
ENDROOT
BRANCH   1   9
HETATM    9  C   UNL     1      -5.390  -3.645  -3.761  1.00  0.00     0.009 C 
HETATM   10  C   UNL     1      -4.263  -4.062  -3.162  1.00  0.00     0.001 C 
BRANCH  10  11
HETATM   11  C   UNL     1      -3.006  -3.265  -3.096  1.00  0.00     0.259 C 
BRANCH  11  12
HETATM   12  N   UNL     1      -2.726  -2.857  -1.693  1.00  0.00    -0.071 N 
HETATM   13  H   UNL     1      -2.656  -3.722  -1.133  1.00  0.00     0.277 HD
HETATM   14  H   UNL     1      -3.556  -2.362  -1.337  1.00  0.00     0.277 HD
BRANCH  12  15
HETATM   15  C   UNL     1      -1.511  -1.998  -1.523  1.00  0.00     0.242 C 
BRANCH  15  16
HETATM   16  C   UNL     1      -1.309  -1.486  -0.076  1.00  0.00     0.055 C 
HETATM   17  C   UNL     1      -2.442  -0.595   0.389  1.00  0.00    -0.025 A 
HETATM   18  C   UNL     1      -2.499   0.754   0.019  1.00  0.00     0.010 A 
HETATM   19  C   UNL     1      -3.477  -1.133   1.172  1.00  0.00     0.041 A 
HETATM   20  C   UNL     1      -3.578   1.542   0.421  1.00  0.00     0.001 A 
HETATM   21  C   UNL     1      -4.606   0.992   1.187  1.00  0.00     0.002 A 
HETATM   22  C   UNL     1      -4.561  -0.350   1.561  1.00  0.00     0.030 A 
HETATM   23  N   UNL     1      -3.457  -2.494   1.496  1.00  0.00    -0.327 N 
HETATM   24  C   UNL     1      -2.398  -3.311   1.214  1.00  0.00     0.222 C 
HETATM   25  H   UNL     1      -4.288  -2.935   1.880  1.00  0.00     0.169 HD
HETATM   26  O   UNL     1      -2.533  -4.522   1.082  1.00  0.00    -0.273 OA
HETATM   27  C   UNL     1      -1.093  -2.615   0.929  1.00  0.00     0.114 C 
ENDBRANCH  15  16
ENDBRANCH  12  15
ENDBRANCH  11  12
ENDBRANCH  10  11
ENDBRANCH   1   9
TORSDOF 5
