REMARK  7 active torsions:
REMARK  status: ('A' for Active; 'I' for Inactive)
REMARK    1  A    between atoms: O_2  and  C_3 
REMARK    2  A    between atoms: C_5  and  C_15 
REMARK    3  A    between atoms: C_8  and  C_9 
REMARK       I    between atoms: C_15  and  N_17 
REMARK    4  A    between atoms: N_17  and  C_18 
REMARK    5  A    between atoms: C_18  and  C_19 
REMARK    6  A    between atoms: C_23  and  C_25 
REMARK       I    between atoms: C_25  and  N_27 
REMARK    7  A    between atoms: N_27  and  C_28 
ROOT
HETATM    1  C   UNL     1      -0.050   6.316   2.012  1.00  0.00    -0.040 A 
HETATM    2  C   UNL     1      -0.228   5.029   2.541  1.00  0.00     0.009 A 
HETATM    3  C   UNL     1      -1.171   4.801   3.542  1.00  0.00     0.002 A 
HETATM    4  C   UNL     1      -1.940   5.857   4.028  1.00  0.00     0.017 A 
HETATM    5  C   UNL     1      -1.768   7.154   3.527  1.00  0.00     0.033 A 
HETATM    6  C   UNL     1      -0.823   7.377   2.515  1.00  0.00     0.026 A 
ENDROOT
BRANCH   1   7
HETATM    7  C   UNL     1       0.965   6.563   0.925  1.00  0.00     0.161 C 
BRANCH   7   8
HETATM    8  N   UNL     1       2.313   6.517   1.442  1.00  0.00    -0.353 N 
HETATM    9  C   UNL     1       2.928   7.638   1.956  1.00  0.00     0.252 C 
HETATM   10  O   UNL     1       2.394   8.741   2.005  1.00  0.00    -0.268 OA
HETATM   11  H   UNL     1       2.695   5.606   1.651  1.00  0.00     0.163 HD
BRANCH   9  12
HETATM   12  C   UNL     1       4.304   7.441   2.499  1.00  0.00     0.034 A 
HETATM   13  C   UNL     1       4.769   8.327   3.482  1.00  0.00     0.054 A 
HETATM   14  C   UNL     1       6.057   8.190   4.021  1.00  0.00     0.080 A 
HETATM   15  C   UNL     1       6.898   7.153   3.560  1.00  0.00     0.010 A 
HETATM   16  C   UNL     1       6.427   6.284   2.560  1.00  0.00     0.016 A 
HETATM   17  C   UNL     1       5.143   6.427   2.029  1.00  0.00     0.018 A 
BRANCH  14  18
HETATM   18  O   UNL     1       6.563   9.011   4.998  1.00  0.00    -0.355 OA
HETATM   19  C   UNL     1       5.718  10.025   5.526  1.00  0.00     0.210 C 
ENDBRANCH  14  18
BRANCH  15  20
HETATM   20  C   UNL     1       8.251   6.969   4.071  1.00  0.00     0.013 A 
HETATM   21  C   UNL     1       9.248   7.908   4.425  1.00  0.00     0.152 A 
HETATM   22  N   UNL     1      10.377   7.331   4.848  1.00  0.00    -0.187 NA
HETATM   23  N   UNL     1      10.100   6.020   4.786  1.00  0.00    -0.289 N 
HETATM   24  H   UNL     1      10.816   5.364   5.079  1.00  0.00     0.188 HD
HETATM   25  C   UNL     1       8.845   5.749   4.320  1.00  0.00     0.123 A 
ENDBRANCH  15  20
ENDBRANCH   9  12
ENDBRANCH   7   8
ENDBRANCH   1   7
BRANCH   5  26
HETATM   26  C   UNL     1      -2.645   8.238   4.068  1.00  0.00     0.257 C 
HETATM   27  O   UNL     1      -3.718   7.908   4.560  1.00  0.00    -0.267 OA
HETATM   28  N   UNL     1      -2.138   9.515   3.976  1.00  0.00    -0.301 N 
HETATM   29  H   UNL     1      -1.203   9.694   3.648  1.00  0.00     0.171 HD
BRANCH  28  30
HETATM   30  C   UNL     1      -2.856  10.611   4.371  1.00  0.00     0.174 A 
HETATM   31  N   UNL     1      -4.071  10.685   4.854  1.00  0.00    -0.228 NA
HETATM   32  C   UNL     1      -4.378  12.005   5.089  1.00  0.00     0.054 A 
HETATM   33  C   UNL     1      -5.681  12.433   5.668  1.00  0.00     0.090 C 
HETATM   34  C   UNL     1      -3.385  12.911   4.781  1.00  0.00     0.039 A 
HETATM   35  C   UNL     1      -5.847  13.964   5.518  1.00  0.00     0.276 C 
HETATM   36  N   UNL     1      -4.621  14.728   5.850  1.00  0.00     0.088 N 
HETATM   37  C   UNL     1      -3.515  14.387   4.928  1.00  0.00     0.317 C 
HETATM   38  H   UNL     1      -4.330  14.470   6.794  1.00  0.00     0.316 HD
HETATM   39  S   UNL     1      -2.020  12.097   4.173  1.00  0.00    -0.053 SA
ENDBRANCH  28  30
ENDBRANCH   5  26
TORSDOF 7
