REMARK  8 active torsions:
REMARK  status: ('A' for Active; 'I' for Inactive)
REMARK    1  A    between atoms: C_6  and  S_7 
REMARK    2  A    between atoms: S_7  and  C_8 
REMARK    3  A    between atoms: C_8  and  C_9 
REMARK       I    between atoms: C_9  and  N_10 
REMARK    4  A    between atoms: N_10  and  C_11 
REMARK    5  A    between atoms: C_24  and  C_25 
REMARK    6  A    between atoms: C_25  and  C_26 
REMARK       I    between atoms: C_26  and  N_27 
REMARK    7  A    between atoms: N_27  and  C_28 
REMARK    8  A    between atoms: C_28  and  C_29 
ROOT
HETATM    1  C   UNL     1      -1.321   3.047   1.086  1.00  0.00     0.001 A 
HETATM    2  C   UNL     1      -0.036   2.544   1.291  1.00  0.00     0.018 A 
HETATM    3  C   UNL     1       0.441   1.533   0.456  1.00  0.00     0.039 A 
HETATM    4  C   UNL     1      -0.343   1.024  -0.585  1.00  0.00     0.073 A 
HETATM    5  N   UNL     1       0.142   0.070  -1.488  1.00  0.00    -0.223 NA
HETATM    6  C   UNL     1       1.337  -0.387  -1.312  1.00  0.00     0.178 C 
HETATM    7  N   UNL     1       2.132  -0.054  -0.226  1.00  0.00    -0.241 N 
HETATM    8  C   UNL     1       1.770   0.937   0.630  1.00  0.00     0.147 A 
HETATM    9  N   UNL     1       2.632   1.292   1.538  1.00  0.00    -0.256 NA
HETATM   10  C   UNL     1       3.370  -0.511   0.161  1.00  0.00     0.257 A 
HETATM   11  O   UNL     1       4.061  -1.409  -0.293  1.00  0.00    -0.270 OA
HETATM   12  C   UNL     1       3.775   0.352   1.340  1.00  0.00     0.211 A 
HETATM   13  C   UNL     1      -1.628   1.531  -0.775  1.00  0.00     0.032 A 
HETATM   14  C   UNL     1      -2.118   2.537   0.059  1.00  0.00     0.002 A 
ENDROOT
BRANCH  12  15
HETATM   15  C   UNL     1       5.096   1.081   1.099  1.00  0.00     0.140 C 
BRANCH  15  16
HETATM   16  C   UNL     1       5.309   1.440  -0.362  1.00  0.00     0.220 C 
HETATM   17  N   UNL     1       6.537   1.308  -0.925  1.00  0.00    -0.357 N 
HETATM   18  H   UNL     1       6.564   1.533  -1.913  1.00  0.00     0.162 HD
HETATM   19  O   UNL     1       4.390   1.863  -1.068  1.00  0.00    -0.274 OA
BRANCH  17  20
HETATM   20  C   UNL     1       7.719   0.692  -0.358  1.00  0.00     0.161 C 
BRANCH  20  21
HETATM   21  C   UNL     1       8.820   0.583  -1.383  1.00  0.00    -0.038 A 
HETATM   22  C   UNL     1       9.309  -0.678  -1.762  1.00  0.00     0.048 A 
HETATM   23  C   UNL     1      10.308  -0.731  -2.713  1.00  0.00     0.105 A 
HETATM   24  C   UNL     1      10.821   0.405  -3.291  1.00  0.00     0.105 A 
HETATM   25  O   UNL     1      10.893  -1.863  -3.187  1.00  0.00    -0.323 OA
HETATM   26  O   UNL     1      11.791   0.131  -4.204  1.00  0.00    -0.323 OA
HETATM   27  C   UNL     1      10.367   1.660  -2.949  1.00  0.00     0.040 A 
HETATM   28  C   UNL     1      11.838  -1.309  -4.125  1.00  0.00     0.352 A 
HETATM   29  C   UNL     1       9.361   1.747  -1.981  1.00  0.00     0.012 A 
ENDBRANCH  20  21
ENDBRANCH  17  20
ENDBRANCH  15  16
ENDBRANCH  12  15
BRANCH   6  30
HETATM   30  S   UNL     1       1.999  -1.381  -2.580  1.00  0.00    -0.082 SA
BRANCH  30  31
HETATM   31  C   UNL     1       2.933  -0.088  -3.467  1.00  0.00     0.185 C 
BRANCH  31  32
HETATM   32  C   UNL     1       2.090   1.160  -3.738  1.00  0.00     0.232 C 
HETATM   33  N   UNL     1       2.415   2.226  -2.908  1.00  0.00    -0.324 N 
HETATM   34  H   UNL     1       3.169   2.072  -2.234  1.00  0.00     0.169 HD
HETATM   35  O   UNL     1       1.222   1.139  -4.603  1.00  0.00    -0.272 OA
BRANCH  33  36
HETATM   36  C   UNL     1       1.818   3.511  -2.828  1.00  0.00     0.073 A 
HETATM   37  C   UNL     1       0.838   4.035  -3.677  1.00  0.00     0.143 A 
HETATM   38  F   UNL     1       0.365   3.365  -4.733  1.00  0.00    -0.204 F 
HETATM   39  C   UNL     1       0.329   5.324  -3.485  1.00  0.00     0.044 A 
HETATM   40  C   UNL     1       0.790   6.119  -2.439  1.00  0.00     0.003 A 
HETATM   41  C   UNL     1       1.766   5.621  -1.585  1.00  0.00     0.002 A 
HETATM   42  C   UNL     1       2.275   4.332  -1.780  1.00  0.00     0.033 A 
ENDBRANCH  33  36
ENDBRANCH  31  32
ENDBRANCH  30  31
ENDBRANCH   6  30
TORSDOF 8
