REMARK  7 active torsions:
REMARK  status: ('A' for Active; 'I' for Inactive)
REMARK    1  A    between atoms: C_4  and  C_5 
REMARK    2  A    between atoms: C_8  and  C_9 
REMARK    3  A    between atoms: C_9  and  C_10 
REMARK       I    between atoms: C_10  and  N_11 
REMARK    4  A    between atoms: N_11  and  N_12 
REMARK       I    between atoms: N_12  and  C_13 
REMARK    5  A    between atoms: C_13  and  C_14 
REMARK    6  A    between atoms: C_14  and  C_15 
REMARK    7  A    between atoms: C_16  and  O_17 
ROOT
HETATM    1  C   UNL     1       7.786   5.813  -1.671  1.00  0.00     0.241 C 
HETATM    2  N   UNL     1       6.505   6.322  -1.740  1.00  0.00    -0.267 N 
HETATM    3  O   UNL     1       8.782   6.538  -1.721  1.00  0.00    -0.271 OA
HETATM    4  H   UNL     1       5.693   5.740  -1.955  1.00  0.00     0.190 HD
ENDROOT
BRANCH   1   5
HETATM    5  C   UNL     1       7.865   4.309  -1.519  1.00  0.00     0.164 C 
BRANCH   5   6
HETATM    6  C   UNL     1       8.310   3.617  -2.766  1.00  0.00     0.051 A 
HETATM    7  C   UNL     1       9.180   4.079  -3.735  1.00  0.00     0.079 A 
HETATM    8  S   UNL     1       9.395   2.899  -4.954  1.00  0.00    -0.079 SA
HETATM    9  C   UNL     1       8.338   1.830  -4.109  1.00  0.00     0.108 A 
HETATM   10  N   UNL     1       7.848   2.325  -2.987  1.00  0.00    -0.244 NA
BRANCH   9  11
HETATM   11  C   UNL     1       8.084   0.463  -4.596  1.00  0.00     0.000 A 
HETATM   12  C   UNL     1       7.835  -0.558  -3.662  1.00  0.00     0.021 A 
HETATM   13  C   UNL     1       7.594  -1.879  -4.067  1.00  0.00    -0.061 A 
HETATM   14  C   UNL     1       7.381  -2.964  -3.054  1.00  0.00     0.048 C 
HETATM   15  C   UNL     1       7.610  -2.184  -5.432  1.00  0.00     0.007 A 
HETATM   16  C   UNL     1       7.840  -1.183  -6.373  1.00  0.00     0.001 A 
HETATM   17  C   UNL     1       8.072   0.131  -5.959  1.00  0.00     0.014 A 
ENDBRANCH   9  11
ENDBRANCH   5   6
ENDBRANCH   1   5
BRANCH   2  18
HETATM   18  N   UNL     1       6.360   7.693  -1.990  1.00  0.00    -0.267 N 
HETATM   19  C   UNL     1       5.181   8.134  -2.556  1.00  0.00     0.240 C 
HETATM   20  O   UNL     1       4.224   7.382  -2.742  1.00  0.00    -0.272 OA
HETATM   21  H   UNL     1       7.211   8.255  -1.957  1.00  0.00     0.190 HD
BRANCH  19  22
HETATM   22  C   UNL     1       5.159   9.612  -2.886  1.00  0.00     0.146 C 
BRANCH  22  23
HETATM   23  C   UNL     1       4.433  10.507  -1.899  1.00  0.00    -0.016 A 
HETATM   24  C   UNL     1       4.293  11.879  -2.197  1.00  0.00     0.074 A 
HETATM   25  C   UNL     1       3.642  12.728  -1.295  1.00  0.00     0.037 A 
HETATM   26  C   UNL     1       3.121  12.225  -0.102  1.00  0.00     0.003 A 
HETATM   27  C   UNL     1       3.251  10.874   0.198  1.00  0.00     0.001 A 
HETATM   28  C   UNL     1       3.904  10.020  -0.692  1.00  0.00     0.010 A 
BRANCH  24  29
HETATM   29  O   UNL     1       4.842  12.289  -3.386  1.00  0.00    -0.355 OA
HETATM   30  C   UNL     1       4.512  13.598  -3.836  1.00  0.00     0.210 C 
ENDBRANCH  24  29
ENDBRANCH  22  23
ENDBRANCH  19  22
ENDBRANCH   2  18
TORSDOF 7
