REMARK  5 active torsions:
REMARK  status: ('A' for Active; 'I' for Inactive)
REMARK    1  A    between atoms: C_7  and  C_8 
REMARK    2  A    between atoms: C_16  and  C_17 
REMARK    3  A    between atoms: C_20  and  O_21 
REMARK    4  A    between atoms: C_24  and  C_25 
REMARK       I    between atoms: C_25  and  N_26 
REMARK    5  A    between atoms: N_26  and  C_27 
ROOT
HETATM    1  C   UNL     1       0.817   0.118   0.274  1.00  0.00     0.070 C 
HETATM    2  C   UNL     1       2.305  -0.001   0.050  1.00  0.00     0.037 C 
HETATM    3  N   UNL     1       2.982   1.204  -0.154  1.00  0.00    -0.192 N 
HETATM    4  C   UNL     1       4.325   1.294  -0.064  1.00  0.00     0.726 A 
HETATM    5  N   UNL     1       5.066   0.150  -0.068  1.00  0.00    -0.083 N 
HETATM    6  N   UNL     1       6.371   0.397   0.152  1.00  0.00    -0.135 NA
HETATM    7  C   UNL     1       6.364   1.741   0.268  1.00  0.00     0.200 A 
HETATM    8  N   UNL     1       5.118   2.318   0.099  1.00  0.00    -0.041 NA
HETATM    9  C   UNL     1       4.495  -1.188  -0.216  1.00  0.00     0.202 C 
HETATM   10  C   UNL     1       2.992  -1.174   0.054  1.00  0.00     0.062 C 
HETATM   11  H   UNL     1       2.447   2.056   0.004  1.00  0.00     0.184 HD
ENDROOT
BRANCH  10  12
HETATM   12  C   UNL     1       2.360  -2.435   0.554  1.00  0.00     0.256 C 
HETATM   13  N   UNL     1       2.786  -3.585  -0.075  1.00  0.00    -0.323 N 
HETATM   14  H   UNL     1       3.390  -3.499  -0.881  1.00  0.00     0.169 HD
HETATM   15  O   UNL     1       1.581  -2.377   1.500  1.00  0.00    -0.267 OA
BRANCH  13  16
HETATM   16  C   UNL     1       2.485  -4.917   0.288  1.00  0.00     0.035 A 
HETATM   17  C   UNL     1       1.589  -5.273   1.298  1.00  0.00     0.029 A 
HETATM   18  C   UNL     1       1.366  -6.619   1.608  1.00  0.00     0.002 A 
HETATM   19  C   UNL     1       2.043  -7.620   0.918  1.00  0.00     0.000 A 
HETATM   20  C   UNL     1       2.939  -7.277  -0.092  1.00  0.00     0.002 A 
HETATM   21  C   UNL     1       3.153  -5.933  -0.409  1.00  0.00     0.029 A 
ENDBRANCH  13  16
ENDBRANCH  10  12
BRANCH   9  22
HETATM   22  C   UNL     1       4.863  -1.729  -1.600  1.00  0.00    -0.028 A 
HETATM   23  C   UNL     1       5.985  -2.568  -1.744  1.00  0.00     0.012 A 
HETATM   24  C   UNL     1       6.343  -3.073  -2.997  1.00  0.00     0.037 A 
HETATM   25  C   UNL     1       5.585  -2.739  -4.114  1.00  0.00     0.065 A 
HETATM   26  C   UNL     1       4.482  -1.904  -3.999  1.00  0.00     0.037 A 
HETATM   27  C   UNL     1       4.127  -1.392  -2.751  1.00  0.00     0.012 A 
BRANCH  25  28
HETATM   28  O   UNL     1       5.899  -3.207  -5.354  1.00  0.00    -0.361 OA
HETATM   29  H   UNL     1       6.733  -3.701  -5.303  1.00  0.00     0.217 HD
ENDBRANCH  25  28
ENDBRANCH   9  22
BRANCH   7  30
HETATM   30  C   UNL     1       7.573   2.515   0.519  1.00  0.00     0.036 A 
HETATM   31  C   UNL     1       7.611   3.615   1.390  1.00  0.00     0.048 A 
HETATM   32 CL   UNL     1       6.244   4.150   2.308  1.00  0.00    -0.083 Cl
HETATM   33  C   UNL     1       8.811   4.311   1.593  1.00  0.00     0.025 A 
HETATM   34  C   UNL     1       9.979   3.919   0.939  1.00  0.00     0.002 A 
HETATM   35  C   UNL     1       9.956   2.825   0.080  1.00  0.00     0.001 A 
HETATM   36  C   UNL     1       8.763   2.128  -0.126  1.00  0.00     0.017 A 
ENDBRANCH   7  30
TORSDOF 5
