REMARK  8 active torsions:
REMARK  status: ('A' for Active; 'I' for Inactive)
REMARK    1  A    between atoms: C_9  and  S_10 
REMARK    2  A    between atoms: S_10  and  C_11 
REMARK    3  A    between atoms: C_11  and  C_12 
REMARK       I    between atoms: C_12  and  N_13 
REMARK    4  A    between atoms: N_13  and  C_14 
REMARK    5  A    between atoms: C_15  and  O_16 
REMARK    6  A    between atoms: C_19  and  O_20 
REMARK    7  A    between atoms: N_25  and  C_26 
REMARK    8  A    between atoms: C_33  and  N_34 
ROOT
HETATM    1  C   UNL     1       0.867   0.082   0.090  1.00  0.00     0.073 C 
HETATM    2  C   UNL     1       2.324  -0.028  -0.182  1.00  0.00     0.068 A 
HETATM    3  N   UNL     1       3.047   1.091  -0.312  1.00  0.00    -0.177 NA
HETATM    4  N   UNL     1       4.296   0.657  -0.532  1.00  0.00    -0.260 N 
HETATM    5  H   UNL     1       5.038   1.339  -0.661  1.00  0.00     0.191 HD
HETATM    6  C   UNL     1       4.392  -0.704  -0.547  1.00  0.00     0.162 A 
HETATM    7  C   UNL     1       3.125  -1.202  -0.329  1.00  0.00     0.081 A 
HETATM    8  N   UNL     1       5.504  -1.410  -0.738  1.00  0.00    -0.204 NA
HETATM    9  C   UNL     1       5.283  -2.742  -0.692  1.00  0.00     0.177 A 
HETATM   10  N   UNL     1       4.069  -3.322  -0.465  1.00  0.00    -0.276 N 
HETATM   11  C   UNL     1       2.926  -2.592  -0.304  1.00  0.00     0.124 A 
ENDROOT
BRANCH   9  12
HETATM   12  S   UNL     1       6.785  -3.715  -0.872  1.00  0.00    -0.082 SA
BRANCH  12  13
HETATM   13  C   UNL     1       7.749  -2.597  -1.945  1.00  0.00     0.185 C 
BRANCH  13  14
HETATM   14  C   UNL     1       8.680  -3.412  -2.819  1.00  0.00     0.232 C 
HETATM   15  N   UNL     1       9.971  -3.477  -2.325  1.00  0.00    -0.324 N 
HETATM   16  H   UNL     1      10.070  -3.494  -1.318  1.00  0.00     0.169 HD
HETATM   17  O   UNL     1       8.247  -3.983  -3.817  1.00  0.00    -0.272 OA
BRANCH  15  18
HETATM   18  C   UNL     1      11.100  -3.887  -3.072  1.00  0.00     0.068 A 
HETATM   19  C   UNL     1      11.291  -3.571  -4.434  1.00  0.00     0.097 A 
HETATM   20  C   UNL     1      12.444  -4.031  -5.091  1.00  0.00     0.075 A 
HETATM   21  C   UNL     1      13.415  -4.760  -4.400  1.00  0.00     0.070 A 
HETATM   22  C   UNL     1      13.245  -5.010  -3.039  1.00  0.00     0.039 A 
HETATM   23  C   UNL     1      12.102  -4.569  -2.374  1.00  0.00     0.035 A 
BRANCH  19  24
HETATM   24  O   UNL     1      10.373  -2.726  -5.006  1.00  0.00    -0.354 OA
HETATM   25  C   UNL     1      10.529  -2.404  -6.382  1.00  0.00     0.210 C 
ENDBRANCH  19  24
BRANCH  21  26
HETATM   26  O   UNL     1      14.578  -5.253  -4.924  1.00  0.00    -0.356 OA
HETATM   27  C   UNL     1      14.767  -5.121  -6.328  1.00  0.00     0.210 C 
ENDBRANCH  21  26
ENDBRANCH  15  18
ENDBRANCH  13  14
ENDBRANCH  12  13
ENDBRANCH   9  12
BRANCH  10  28
HETATM   28  C   UNL     1       3.978  -4.752  -0.336  1.00  0.00     0.043 A 
HETATM   29  C   UNL     1       3.750  -5.294   0.933  1.00  0.00     0.031 A 
HETATM   30  C   UNL     1       3.595  -6.675   1.058  1.00  0.00     0.021 A 
HETATM   31  C   UNL     1       3.666  -7.486  -0.077  1.00  0.00     0.011 A 
HETATM   32 BR   UNL     1       3.448  -9.355   0.099  1.00  0.00    -0.051 Br
HETATM   33  C   UNL     1       3.887  -6.932  -1.342  1.00  0.00     0.021 A 
HETATM   34  C   UNL     1       4.039  -5.550  -1.482  1.00  0.00     0.031 A 
ENDBRANCH  10  28
BRANCH  11  35
HETATM   35  N   UNL     1       1.674  -3.170  -0.122  1.00  0.00    -0.384 N 
HETATM   36  H   UNL     1       1.498  -4.137  -0.372  1.00  0.00     0.157 HD
HETATM   37  H   UNL     1       0.855  -2.574  -0.187  1.00  0.00     0.157 HD
ENDBRANCH  11  35
TORSDOF 8
