REMARK  8 active torsions:
REMARK  status: ('A' for Active; 'I' for Inactive)
REMARK    1  A    between atoms: C_2  and  O_3 
REMARK    2  A    between atoms: O_3  and  C_4 
REMARK    3  A    between atoms: C_4  and  C_5 
REMARK    4  A    between atoms: C_6  and  C_8 
REMARK    5  A    between atoms: C_6  and  O_7 
REMARK    6  A    between atoms: C_16  and  C_17 
REMARK    7  A    between atoms: C_18  and  C_19 
REMARK    8  A    between atoms: N_26  and  C_27 
ROOT
HETATM    1  C   UNL     1       7.361   0.751  -1.952  1.00  0.00     0.177 C 
HETATM    2  C   UNL     1       7.597  -0.764  -2.025  1.00  0.00     0.250 C 
HETATM    3  N   UNL     1       8.147  -1.230  -0.763  1.00  0.00    -0.303 N 
HETATM    4  C   UNL     1       7.684  -0.816   0.437  1.00  0.00     0.319 C 
HETATM    5  O   UNL     1       7.910  -1.446   1.460  1.00  0.00    -0.247 OA
HETATM    6  N   UNL     1       7.011   0.354   0.453  1.00  0.00    -0.333 N 
HETATM    7  C   UNL     1       6.512   1.057  -0.714  1.00  0.00     0.142 C 
HETATM    8  H   UNL     1       8.520  -2.174  -0.737  1.00  0.00     0.167 HD
HETATM    9  H   UNL     1       6.657   0.610   1.368  1.00  0.00     0.165 HD
ENDROOT
BRANCH   7  10
HETATM   10  C   UNL     1       6.470   2.512  -0.335  1.00  0.00     0.015 A 
HETATM   11  C   UNL     1       5.325   3.329  -0.083  1.00  0.00     0.097 A 
HETATM   12  N   UNL     1       5.685   4.590   0.190  1.00  0.00    -0.167 NA
HETATM   13  N   UNL     1       7.034   4.612   0.149  1.00  0.00    -0.244 N 
HETATM   14  C   UNL     1       7.541   3.369  -0.150  1.00  0.00     0.130 A 
BRANCH  11  15
HETATM   15  C   UNL     1       3.907   2.965  -0.098  1.00  0.00    -0.005 A 
HETATM   16  C   UNL     1       3.441   1.823   0.567  1.00  0.00     0.014 A 
HETATM   17  C   UNL     1       2.084   1.490   0.537  1.00  0.00     0.001 A 
HETATM   18  C   UNL     1       1.180   2.303  -0.144  1.00  0.00     0.000 A 
HETATM   19  C   UNL     1       1.629   3.453  -0.791  1.00  0.00     0.001 A 
HETATM   20  C   UNL     1       2.985   3.783  -0.766  1.00  0.00     0.014 A 
ENDBRANCH  11  15
BRANCH  13  21
HETATM   21  C   UNL     1       7.749   5.820   0.387  1.00  0.00     0.058 A 
HETATM   22  C   UNL     1       7.037   6.991   0.693  1.00  0.00     0.031 A 
HETATM   23  C   UNL     1       7.715   8.190   0.921  1.00  0.00     0.002 A 
HETATM   24  C   UNL     1       9.105   8.231   0.846  1.00  0.00     0.000 A 
HETATM   25  C   UNL     1       9.820   7.073   0.543  1.00  0.00     0.002 A 
HETATM   26  C   UNL     1       9.148   5.868   0.315  1.00  0.00     0.031 A 
ENDBRANCH  13  21
ENDBRANCH   7  10
BRANCH   1  27
HETATM   27  C   UNL     1       6.673   1.268  -3.194  1.00  0.00     0.270 C 
HETATM   28  O   UNL     1       5.518   1.664  -3.231  1.00  0.00    -0.265 OA
BRANCH  27  29
HETATM   29  O   UNL     1       7.524   1.244  -4.253  1.00  0.00    -0.321 OA
BRANCH  29  30
HETATM   30  C   UNL     1       7.009   1.747  -5.497  1.00  0.00     0.174 C 
HETATM   31  C   UNL     1       6.071   0.755  -6.160  1.00  0.00     0.034 C 
ENDBRANCH  29  30
ENDBRANCH  27  29
ENDBRANCH   1  27
BRANCH   2  32
HETATM   32  C   UNL     1       6.315  -1.579  -2.442  1.00  0.00     0.439 C 
HETATM   33  F   UNL     1       5.884  -1.260  -3.681  1.00  0.00    -0.166 F 
HETATM   34  F   UNL     1       6.577  -2.911  -2.440  1.00  0.00    -0.166 F 
HETATM   35  F   UNL     1       5.288  -1.381  -1.588  1.00  0.00    -0.166 F 
ENDBRANCH   2  32
BRANCH   2  36
HETATM   36  O   UNL     1       8.679  -1.027  -2.926  1.00  0.00    -0.363 OA
HETATM   37  H   UNL     1       9.488  -0.791  -2.441  1.00  0.00     0.213 HD
ENDBRANCH   2  36
TORSDOF 8
