REMARK  3 active torsions:
REMARK  status: ('A' for Active; 'I' for Inactive)
REMARK    1  A    between atoms: C_3  and  N_4 
REMARK    2  A    between atoms: C_10  and  O_11 
REMARK    3  A    between atoms: C_14  and  C_15 
ROOT
HETATM    1  N   UNL     1       1.018   2.539   0.004  1.00  0.00    -0.212 N 
HETATM    2  N   UNL     1       2.321   2.752  -0.322  1.00  0.00    -0.177 NA
HETATM    3  C   UNL     1       2.464   4.070  -0.281  1.00  0.00     0.152 C 
HETATM    4  C   UNL     1       1.293   4.757   0.122  1.00  0.00     0.027 C 
HETATM    5  C   UNL     1       0.390   3.733   0.402  1.00  0.00     0.163 C 
HETATM    6  N   UNL     1      -0.817   3.718   1.027  1.00  0.00    -0.208 NA
HETATM    7  C   UNL     1      -1.673   4.632   0.725  1.00  0.00     0.149 C 
HETATM    8  C   UNL     1      -1.525   5.784  -0.221  1.00  0.00     0.161 C 
HETATM    9  S   UNL     1      -0.441   7.017   0.543  1.00  0.00    -0.146 SA
HETATM   10  C   UNL     1       1.217   6.251   0.313  1.00  0.00     0.124 C 
ENDROOT
BRANCH  10  11
HETATM   11  C   UNL     1       1.921   7.009  -0.799  1.00  0.00     0.028 A 
HETATM   12  C   UNL     1       3.173   7.740  -0.416  1.00  0.00     0.253 A 
HETATM   13  O   UNL     1       3.634   7.703   0.720  1.00  0.00    -0.268 OA
HETATM   14  N   UNL     1       3.802   8.441  -1.418  1.00  0.00    -0.333 N 
HETATM   15  C   UNL     1       3.370   8.485  -2.716  1.00  0.00     0.091 A 
HETATM   16  H   UNL     1       4.642   8.937  -1.144  1.00  0.00     0.168 HD
HETATM   17  C   UNL     1       2.271   7.816  -3.077  1.00  0.00     0.018 A 
HETATM   18  C   UNL     1       1.536   7.057  -2.092  1.00  0.00     0.015 A 
ENDBRANCH  10  11
BRANCH   1  19
HETATM   19  C   UNL     1       0.501   1.215  -0.064  1.00  0.00     0.099 A 
HETATM   20  C   UNL     1       1.394   0.132   0.020  1.00  0.00     0.035 A 
HETATM   21  C   UNL     1       0.922  -1.183  -0.024  1.00  0.00     0.002 A 
HETATM   22  C   UNL     1      -0.440  -1.431  -0.174  1.00  0.00     0.003 A 
HETATM   23  C   UNL     1      -1.327  -0.363  -0.296  1.00  0.00     0.045 A 
HETATM   24  C   UNL     1      -0.857   0.951  -0.249  1.00  0.00     0.145 A 
HETATM   25  F   UNL     1      -1.747   1.920  -0.502  1.00  0.00    -0.204 F 
ENDBRANCH   1  19
BRANCH   7  26
HETATM   26  O   UNL     1      -2.866   4.569   1.339  1.00  0.00    -0.347 OA
HETATM   27  H   UNL     1      -2.842   3.797   1.930  1.00  0.00     0.219 HD
ENDBRANCH   7  26
TORSDOF 3
