REMARK  4 active torsions:
REMARK  status: ('A' for Active; 'I' for Inactive)
REMARK    1  A    between atoms: C_4  and  C_5 
REMARK    2  A    between atoms: C_8  and  C_9 
REMARK    3  A    between atoms: C_9  and  N_10 
REMARK       I    between atoms: N_10  and  C_11 
REMARK       I    between atoms: C_11  and  N_12 
REMARK    4  A    between atoms: N_12  and  C_13 
ROOT
HETATM    1  C   UNL     1       5.923  -1.486  -1.060  1.00  0.00     0.213 C 
ENDROOT
BRANCH   1   2
HETATM    2  C   UNL     1       4.702  -0.657  -0.922  1.00  0.00     0.190 A 
HETATM    3  O   UNL     1       3.929  -0.518  -2.035  1.00  0.00    -0.194 OA
HETATM    4  N   UNL     1       2.901   0.357  -1.697  1.00  0.00    -0.106 NA
HETATM    5  C   UNL     1       3.146   0.663  -0.412  1.00  0.00     0.189 A 
HETATM    6  N   UNL     1       4.263   0.037   0.106  1.00  0.00    -0.202 NA
BRANCH   5   7
HETATM    7  C   UNL     1       2.336   1.593   0.370  1.00  0.00     0.014 A 
HETATM    8  C   UNL     1       1.250   2.269  -0.208  1.00  0.00     0.015 A 
HETATM    9  C   UNL     1       0.486   3.166   0.544  1.00  0.00     0.001 A 
HETATM   10  C   UNL     1       0.799   3.397   1.882  1.00  0.00     0.000 A 
HETATM   11  C   UNL     1       1.874   2.734   2.469  1.00  0.00     0.001 A 
HETATM   12  C   UNL     1       2.639   1.837   1.718  1.00  0.00     0.015 A 
ENDBRANCH   5   7
ENDBRANCH   1   2
BRANCH   1  13
HETATM   13  N   UNL     1       5.690  -2.826  -0.560  1.00  0.00    -0.335 N 
HETATM   14  C   UNL     1       5.702  -3.899  -1.393  1.00  0.00     0.321 C 
HETATM   15  N   UNL     1       5.666  -5.138  -0.831  1.00  0.00    -0.309 N 
HETATM   16  O   UNL     1       5.829  -3.795  -2.610  1.00  0.00    -0.247 OA
HETATM   17  H   UNL     1       5.937  -5.847  -1.503  1.00  0.00     0.170 HD
HETATM   18  H   UNL     1       5.926  -2.998   0.405  1.00  0.00     0.164 HD
BRANCH  15  19
HETATM   19  C   UNL     1       5.343  -5.591   0.459  1.00  0.00     0.036 A 
HETATM   20  C   UNL     1       4.567  -4.871   1.370  1.00  0.00     0.029 A 
HETATM   21  C   UNL     1       4.296  -5.398   2.636  1.00  0.00     0.002 A 
HETATM   22  C   UNL     1       4.786  -6.652   2.996  1.00  0.00     0.000 A 
HETATM   23  C   UNL     1       5.529  -7.392   2.081  1.00  0.00     0.002 A 
HETATM   24  C   UNL     1       5.794  -6.869   0.814  1.00  0.00     0.029 A 
ENDBRANCH  15  19
ENDBRANCH   1  13
TORSDOF 4
