REMARK  14 active torsions:
REMARK  status: ('A' for Active; 'I' for Inactive)
REMARK    1  A    between atoms: C_2  and  N_3 
REMARK    2  A    between atoms: N_3  and  C_5 
REMARK    3  A    between atoms: N_3  and  C_37 
REMARK    4  A    between atoms: C_5  and  C_6 
REMARK    5  A    between atoms: C_6  and  N_7 
REMARK    6  A    between atoms: C_10  and  O_11 
REMARK    7  A    between atoms: C_12  and  C_13 
REMARK    8  A    between atoms: C_13  and  C_14 
REMARK    9  A    between atoms: C_18  and  O_19 
REMARK   10  A    between atoms: O_19  and  C_20 
REMARK   11  A    between atoms: C_26  and  C_27 
REMARK   12  A    between atoms: C_29  and  O_30 
REMARK   13  A    between atoms: O_30  and  C_31 
REMARK   14  A    between atoms: C_33  and  O_34 
ROOT
HETATM    1  N   UNL     1       0.492   3.896  -0.133  1.00  0.00    -0.332 N 
HETATM    2  C   UNL     1       1.327   4.976  -0.307  1.00  0.00     0.278 C 
HETATM    3  O   UNL     1       2.519   4.959  -0.557  1.00  0.00    -0.265 OA
HETATM    4  C   UNL     1       0.503   6.197  -0.231  1.00  0.00     0.146 C 
HETATM    5  C   UNL     1      -0.772   5.799  -0.135  1.00  0.00     0.059 C 
HETATM    6  C   UNL     1      -0.892   4.315   0.055  1.00  0.00     0.161 C 
ENDROOT
BRANCH   5   7
HETATM    7  C   UNL     1      -2.011   6.599  -0.262  1.00  0.00     0.193 C 
HETATM    8  O   UNL     1      -3.074   6.146   0.153  1.00  0.00    -0.287 OA
BRANCH   7   9
HETATM    9  C   UNL     1      -2.001   7.901  -0.971  1.00  0.00     0.015 A 
HETATM   10  C   UNL     1      -1.274   8.091  -2.151  1.00  0.00     0.025 A 
HETATM   11  C   UNL     1      -1.254   9.343  -2.784  1.00  0.00    -0.028 A 
HETATM   12  C   UNL     1      -0.405   9.546  -4.010  1.00  0.00     0.051 C 
HETATM   13  C   UNL     1      -2.002  10.405  -2.245  1.00  0.00     0.075 A 
HETATM   14  C   UNL     1      -2.792  10.187  -1.113  1.00  0.00     0.038 A 
HETATM   15  C   UNL     1      -2.791   8.940  -0.476  1.00  0.00     0.018 A 
BRANCH  13  16
HETATM   16  O   UNL     1      -1.888  11.593  -2.913  1.00  0.00    -0.346 OA
BRANCH  16  17
HETATM   17  C   UNL     1      -2.355  12.803  -2.307  1.00  0.00     0.121 C 
HETATM   18  C   UNL     1      -1.414  13.251  -1.189  1.00  0.00     0.040 C 
HETATM   19  C   UNL     1      -2.369  13.855  -3.414  1.00  0.00     0.040 C 
ENDBRANCH  16  17
ENDBRANCH  13  16
ENDBRANCH   7   9
ENDBRANCH   5   7
BRANCH   4  20
HETATM   20  O   UNL     1       1.014   7.449  -0.376  1.00  0.00    -0.355 OA
HETATM   21  H   UNL     1       1.983   7.354  -0.475  1.00  0.00     0.218 HD
ENDBRANCH   4  20
BRANCH   6  22
HETATM   22  C   UNL     1      -1.377   3.855   1.422  1.00  0.00    -0.028 A 
HETATM   23  C   UNL     1      -2.534   3.055   1.524  1.00  0.00     0.049 A 
HETATM   24  C   UNL     1      -2.959   2.574   2.764  1.00  0.00     0.102 A 
HETATM   25  C   UNL     1      -2.221   2.901   3.906  1.00  0.00     0.099 A 
HETATM   26  C   UNL     1      -1.093   3.704   3.837  1.00  0.00     0.040 A 
HETATM   27  C   UNL     1      -0.672   4.183   2.599  1.00  0.00     0.012 A 
BRANCH  24  28
HETATM   28  O   UNL     1      -4.045   1.773   2.995  1.00  0.00    -0.349 OA
BRANCH  28  29
HETATM   29  C   UNL     1      -4.946   1.567   1.907  1.00  0.00     0.171 C 
HETATM   30  C   UNL     1      -6.109   0.735   2.420  1.00  0.00     0.034 C 
ENDBRANCH  28  29
ENDBRANCH  24  28
BRANCH  25  31
HETATM   31  O   UNL     1      -2.604   2.436   5.134  1.00  0.00    -0.358 OA
HETATM   32  H   UNL     1      -3.451   1.974   4.984  1.00  0.00     0.218 HD
ENDBRANCH  25  31
ENDBRANCH   6  22
BRANCH   1  33
HETATM   33  C   UNL     1       0.857   2.539  -0.500  1.00  0.00     0.155 C 
BRANCH  33  34
HETATM   34  C   UNL     1       2.104   2.022   0.240  1.00  0.00     0.254 C 
BRANCH  34  35
HETATM   35  N   UNL     1       2.574   0.651  -0.239  1.00  0.00    -0.070 N 
HETATM   36  H   UNL     1       3.403   0.441   0.335  1.00  0.00     0.279 HD
BRANCH  35  37
HETATM   37  C   UNL     1       3.068   0.616  -1.679  1.00  0.00     0.230 C 
HETATM   38  C   UNL     1       4.213   1.584  -1.910  1.00  0.00     0.034 C 
ENDBRANCH  35  37
BRANCH  35  39
HETATM   39  C   UNL     1       1.600  -0.486   0.018  1.00  0.00     0.230 C 
HETATM   40  C   UNL     1       1.307  -0.647   1.497  1.00  0.00     0.034 C 
ENDBRANCH  35  39
ENDBRANCH  34  35
ENDBRANCH  33  34
ENDBRANCH   1  33
TORSDOF 14
