REMARK  5 active torsions:
REMARK  status: ('A' for Active; 'I' for Inactive)
REMARK    1  A    between atoms: C_2  and  O_3 
REMARK    2  A    between atoms: O_3  and  C_4 
REMARK    3  A    between atoms: C_5  and  C_6 
REMARK       I    between atoms: C_6  and  N_7 
REMARK    4  A    between atoms: N_7  and  N_8 
REMARK    5  A    between atoms: C_9  and  C_10 
ROOT
HETATM    1  C   UNL     1       3.811   3.828  -1.049  1.00  0.00     0.274 C 
HETATM    2  N   UNL     1       2.503   3.537  -1.400  1.00  0.00    -0.243 N 
HETATM    3  O   UNL     1       4.242   4.957  -0.821  1.00  0.00    -0.266 OA
HETATM    4  H   UNL     1       2.232   2.571  -1.564  1.00  0.00     0.192 HD
ENDROOT
BRANCH   2   5
HETATM    5  N   UNL     1       1.611   4.550  -1.600  1.00  0.00    -0.183 NA
HETATM    6  C   UNL     1       0.463   4.205  -2.083  1.00  0.00     0.152 C 
BRANCH   6   7
HETATM    7  C   UNL     1      -0.523   5.231  -2.361  1.00  0.00     0.011 A 
HETATM    8  C   UNL     1      -1.789   5.080  -3.013  1.00  0.00     0.005 A 
HETATM    9  C   UNL     1      -2.378   6.345  -3.082  1.00  0.00     0.043 A 
HETATM   10  C   UNL     1      -2.487   3.986  -3.569  1.00  0.00     0.033 A 
HETATM   11  C   UNL     1      -3.624   6.576  -3.677  1.00  0.00     0.031 A 
HETATM   12  N   UNL     1      -1.510   7.230  -2.484  1.00  0.00    -0.364 N 
HETATM   13  C   UNL     1      -4.295   5.478  -4.222  1.00  0.00     0.021 A 
HETATM   14  C   UNL     1      -3.733   4.205  -4.167  1.00  0.00     0.012 A 
HETATM   15 BR   UNL     1      -4.668   2.742  -4.920  1.00  0.00    -0.051 Br
HETATM   16  H   UNL     1      -1.671   8.223  -2.391  1.00  0.00     0.165 HD
HETATM   17  C   UNL     1      -0.393   6.573  -2.053  1.00  0.00     0.102 A 
ENDBRANCH   6   7
ENDBRANCH   2   5
BRANCH   1  18
HETATM   18  C   UNL     1       4.755   2.669  -1.018  1.00  0.00     0.067 A 
HETATM   19  C   UNL     1       4.361   1.334  -0.826  1.00  0.00     0.084 A 
HETATM   20  C   UNL     1       5.323   0.314  -0.878  1.00  0.00     0.038 A 
HETATM   21  C   UNL     1       6.671   0.620  -1.073  1.00  0.00     0.003 A 
HETATM   22  C   UNL     1       7.071   1.944  -1.224  1.00  0.00     0.001 A 
HETATM   23  C   UNL     1       6.119   2.962  -1.198  1.00  0.00     0.020 A 
BRANCH  19  24
HETATM   24  O   UNL     1       3.030   1.049  -0.640  1.00  0.00    -0.350 OA
BRANCH  24  25
HETATM   25  C   UNL     1       2.783   0.098   0.404  1.00  0.00     0.171 C 
HETATM   26  C   UNL     1       1.355   0.284   0.883  1.00  0.00     0.034 C 
ENDBRANCH  24  25
ENDBRANCH  19  24
ENDBRANCH   1  18
TORSDOF 5
