REMARK  5 active torsions:
REMARK  status: ('A' for Active; 'I' for Inactive)
REMARK    1  A    between atoms: C_3  and  O_4 
REMARK    2  A    between atoms: C_6  and  N_7 
REMARK       I    between atoms: N_7  and  C_8 
REMARK    3  A    between atoms: C_8  and  C_9 
REMARK    4  A    between atoms: C_14  and  C_15 
REMARK    5  A    between atoms: C_23  and  C_24 
ROOT
HETATM    1  C   UNL     1      -3.844  -1.554  -0.541  1.00  0.00     0.148 A 
HETATM    2  N   UNL     1      -3.334  -0.301  -0.534  1.00  0.00    -0.165 NA
HETATM    3  N   UNL     1      -4.418   0.487  -0.663  1.00  0.00    -0.240 N 
HETATM    4  C   UNL     1      -5.598  -0.208  -0.687  1.00  0.00     0.123 A 
HETATM    5  N   UNL     1      -6.794   0.421  -0.721  1.00  0.00    -0.366 N 
HETATM    6  C   UNL     1      -6.900   1.862  -0.516  1.00  0.00     0.118 C 
HETATM    7  C   UNL     1      -5.656   2.573  -1.065  1.00  0.00     0.066 C 
HETATM    8  C   UNL     1      -4.340   1.935  -0.581  1.00  0.00     0.221 C 
HETATM    9  C   UNL     1      -5.260  -1.534  -0.637  1.00  0.00     0.089 A 
HETATM   10  H   UNL     1      -7.650  -0.102  -0.545  1.00  0.00     0.161 HD
ENDROOT
BRANCH   1  11
HETATM   11  C   UNL     1      -2.987  -2.751  -0.441  1.00  0.00     0.276 C 
HETATM   12  N   UNL     1      -1.645  -2.427  -0.474  1.00  0.00    -0.322 N 
HETATM   13  H   UNL     1      -1.473  -1.430  -0.583  1.00  0.00     0.169 HD
HETATM   14  O   UNL     1      -3.472  -3.873  -0.354  1.00  0.00    -0.266 OA
BRANCH  12  15
HETATM   15  C   UNL     1      -0.537  -3.289  -0.408  1.00  0.00     0.037 A 
HETATM   16  C   UNL     1      -0.631  -4.665  -0.195  1.00  0.00     0.066 A 
HETATM   17  C   UNL     1       0.525  -5.443  -0.143  1.00  0.00     0.067 A 
HETATM   18  C   UNL     1       1.783  -4.874  -0.307  1.00  0.00     0.036 A 
HETATM   19  C   UNL     1       1.884  -3.501  -0.519  1.00  0.00     0.005 A 
HETATM   20  C   UNL     1       0.731  -2.713  -0.564  1.00  0.00     0.029 A 
BRANCH  17  21
HETATM   21  O   UNL     1       0.380  -6.783   0.076  1.00  0.00    -0.361 OA
HETATM   22  H   UNL     1       1.259  -7.194   0.091  1.00  0.00     0.217 HD
ENDBRANCH  17  21
ENDBRANCH  12  15
ENDBRANCH   1  11
BRANCH   8  23
HETATM   23  C   UNL     1      -3.185   2.484  -1.391  1.00  0.00     0.409 C 
HETATM   24  F   UNL     1      -3.265   2.147  -2.699  1.00  0.00    -0.169 F 
HETATM   25  F   UNL     1      -3.195   3.843  -1.341  1.00  0.00    -0.169 F 
HETATM   26  F   UNL     1      -1.975   2.102  -0.931  1.00  0.00    -0.169 F 
ENDBRANCH   8  23
BRANCH   6  27
HETATM   27  C   UNL     1      -7.224   2.226   0.926  1.00  0.00    -0.035 A 
HETATM   28  C   UNL     1      -6.815   1.449   2.025  1.00  0.00     0.012 A 
HETATM   29  C   UNL     1      -7.151   1.821   3.330  1.00  0.00     0.043 A 
HETATM   30  C   UNL     1      -7.894   2.973   3.546  1.00  0.00     0.116 A 
HETATM   31  F   UNL     1      -8.222   3.324   4.796  1.00  0.00    -0.206 F 
HETATM   32  C   UNL     1      -8.303   3.766   2.483  1.00  0.00     0.043 A 
HETATM   33  C   UNL     1      -7.967   3.396   1.178  1.00  0.00     0.012 A 
ENDBRANCH   6  27
TORSDOF 5
