REMARK  3 active torsions:
REMARK  status: ('A' for Active; 'I' for Inactive)
REMARK    1  A    between atoms: C_8  and  C_9 
REMARK       I    between atoms: C_9  and  N_10 
REMARK    2  A    between atoms: N_10  and  C_11 
REMARK    3  A    between atoms: C_18  and  C_19 
REMARK       I    between atoms: C_19  and  N_20 
ROOT
HETATM    1  C   UNL     1       4.619  -3.652   0.000  1.00  0.00     0.036 A 
HETATM    2  C   UNL     1       5.407  -2.497  -0.102  1.00  0.00     0.046 A 
HETATM    3  C   UNL     1       6.814  -2.610  -0.091  1.00  0.00     0.030 A 
HETATM    4  C   UNL     1       7.384  -3.875  -0.016  1.00  0.00     0.063 A 
HETATM    5  N   UNL     1       8.735  -3.664  -0.040  1.00  0.00    -0.277 N 
HETATM    6  H   UNL     1       9.466  -4.366  -0.011  1.00  0.00     0.189 HD
HETATM    7  N   UNL     1       9.097  -2.372  -0.089  1.00  0.00    -0.168 NA
HETATM    8  C   UNL     1       7.919  -1.707  -0.116  1.00  0.00     0.156 A 
HETATM    9  C   UNL     1       6.631  -5.047   0.072  1.00  0.00     0.034 A 
HETATM   10  C   UNL     1       5.238  -4.906   0.094  1.00  0.00     0.032 A 
ENDROOT
BRANCH   1  11
HETATM   11  N   UNL     1       3.207  -3.628   0.062  1.00  0.00    -0.323 N 
HETATM   12  C   UNL     1       2.385  -2.541  -0.183  1.00  0.00     0.258 C 
HETATM   13  O   UNL     1       2.728  -1.456  -0.630  1.00  0.00    -0.267 OA
HETATM   14  H   UNL     1       2.773  -4.497   0.341  1.00  0.00     0.169 HD
BRANCH  12  15
HETATM   15  C   UNL     1       0.947  -2.757   0.134  1.00  0.00     0.056 A 
HETATM   16  C   UNL     1       0.189  -1.764   0.770  1.00  0.00     0.048 A 
HETATM   17  C   UNL     1       0.759  -0.424   1.142  1.00  0.00     0.071 C 
HETATM   18  N   UNL     1      -1.121  -1.947   1.096  1.00  0.00    -0.241 NA
HETATM   19  C   UNL     1      -1.686  -3.126   0.770  1.00  0.00     0.126 A 
HETATM   20 CL   UNL     1      -3.332  -3.281   1.220  1.00  0.00    -0.063 Cl
HETATM   21  C   UNL     1      -1.025  -4.154   0.124  1.00  0.00     0.045 A 
HETATM   22  C   UNL     1       0.315  -3.963  -0.203  1.00  0.00     0.022 A 
ENDBRANCH  12  15
ENDBRANCH   1  11
BRANCH   8  23
HETATM   23  C   UNL     1       7.875  -0.238  -0.138  1.00  0.00     0.270 C 
HETATM   24  N   UNL     1       9.107   0.358  -0.135  1.00  0.00    -0.365 N 
HETATM   25  H   UNL     1       9.930  -0.231  -0.093  1.00  0.00     0.159 HD
HETATM   26  H   UNL     1       9.173   1.363  -0.108  1.00  0.00     0.159 HD
HETATM   27  O   UNL     1       6.847   0.431  -0.142  1.00  0.00    -0.266 OA
ENDBRANCH   8  23
TORSDOF 3
