REMARK  12 active torsions:
REMARK  status: ('A' for Active; 'I' for Inactive)
REMARK    1  A    between atoms: C_2  and  N_3 
REMARK    2  A    between atoms: N_3  and  C_5 
REMARK    3  A    between atoms: N_3  and  C_25 
REMARK    4  A    between atoms: C_7  and  C_8 
REMARK    5  A    between atoms: C_8  and  C_9 
REMARK    6  A    between atoms: C_9  and  C_10 
REMARK    7  A    between atoms: C_18  and  C_19 
REMARK    8  A    between atoms: C_25  and  C_26 
REMARK    9  A    between atoms: C_28  and  N_29 
REMARK   10  A    between atoms: C_32  and  N_33 
REMARK   11  A    between atoms: C_39  and  O_40 
REMARK   12  A    between atoms: C_41  and  O_42 
ROOT
HETATM    1  N   UNL     1       3.025  -0.197   1.260  1.00  0.00    -0.061 N 
HETATM    2  H   UNL     1       2.714  -1.109   1.628  1.00  0.00     0.280 HD
ENDROOT
BRANCH   1   3
HETATM    3  C   UNL     1       2.383  -0.036  -0.119  1.00  0.00     0.180 C 
HETATM    4  C   UNL     1       2.641  -1.245  -1.013  1.00  0.00     0.039 C 
HETATM    5  C   UNL     1       2.748   1.274  -0.811  1.00  0.00     0.039 C 
ENDBRANCH   1   3
BRANCH   1   6
HETATM    6  C   UNL     1       4.530  -0.152   1.182  1.00  0.00     0.189 C 
HETATM    7  C   UNL     1       5.265  -0.409   2.533  1.00  0.00     0.038 C 
HETATM    8  C   UNL     1       6.311  -1.243   1.753  1.00  0.00    -0.010 C 
HETATM    9  C   UNL     1       5.200  -1.469   0.698  1.00  0.00     0.038 C 
BRANCH   8  10
HETATM   10  C   UNL     1       7.554  -0.531   1.216  1.00  0.00     0.012 C 
BRANCH  10  11
HETATM   11  C   UNL     1       8.557  -0.242   2.337  1.00  0.00     0.079 C 
BRANCH  11  12
HETATM   12  C   UNL     1       9.781   0.415   1.798  1.00  0.00     0.105 A 
HETATM   13  N   UNL     1       9.821   1.397   0.920  1.00  0.00    -0.233 NA
HETATM   14  C   UNL     1      11.157   1.650   0.710  1.00  0.00     0.085 A 
HETATM   15  C   UNL     1      11.947   0.816   1.485  1.00  0.00     0.063 A 
HETATM   16  C   UNL     1      11.779   2.577  -0.133  1.00  0.00     0.034 A 
HETATM   17  N   UNL     1      11.049   0.045   2.177  1.00  0.00    -0.343 N 
HETATM   18  C   UNL     1      13.345   0.851   1.474  1.00  0.00     0.039 A 
HETATM   19  H   UNL     1      11.287  -0.678   2.840  1.00  0.00     0.167 HD
HETATM   20  C   UNL     1      13.986   1.781   0.623  1.00  0.00    -0.048 A 
HETATM   21  C   UNL     1      13.184   2.629  -0.166  1.00  0.00     0.010 A 
BRANCH  20  22
HETATM   22  C   UNL     1      15.528   1.839   0.589  1.00  0.00    -0.024 C 
HETATM   23  C   UNL     1      16.097   2.882  -0.399  1.00  0.00     0.019 C 
HETATM   24  C   UNL     1      16.061   2.202   1.993  1.00  0.00     0.019 C 
HETATM   25  C   UNL     1      16.093   0.463   0.172  1.00  0.00     0.019 C 
ENDBRANCH  20  22
ENDBRANCH  11  12
ENDBRANCH  10  11
ENDBRANCH   8  10
ENDBRANCH   1   6
BRANCH   1  26
HETATM   26  C   UNL     1       2.578   0.837   2.306  1.00  0.00     0.270 C 
BRANCH  26  27
HETATM   27  C   UNL     1       1.060   0.803   2.515  1.00  0.00     0.181 C 
HETATM   28  O   UNL     1       0.579  -0.541   2.714  1.00  0.00    -0.354 OA
HETATM   29  C   UNL     1      -0.728  -0.392   3.353  1.00  0.00     0.262 C 
HETATM   30  C   UNL     1      -0.806   1.038   3.929  1.00  0.00     0.198 C 
HETATM   31  C   UNL     1       0.620   1.544   3.764  1.00  0.00     0.181 C 
BRANCH  29  32
HETATM   32  N   UNL     1      -0.926  -1.423   4.348  1.00  0.00    -0.294 N 
HETATM   33  C   UNL     1      -2.119  -1.635   4.984  1.00  0.00     0.167 A 
HETATM   34  C   UNL     1      -1.899  -2.727   5.806  1.00  0.00     0.149 A 
HETATM   35  N   UNL     1      -3.251  -0.928   4.836  1.00  0.00    -0.222 NA
HETATM   36  C   UNL     1      -2.995  -3.167   6.568  1.00  0.00     0.155 A 
HETATM   37  N   UNL     1      -0.589  -3.155   5.695  1.00  0.00    -0.236 NA
HETATM   38  N   UNL     1      -4.161  -2.487   6.466  1.00  0.00    -0.222 NA
HETATM   39  C   UNL     1      -4.228  -1.435   5.622  1.00  0.00     0.237 A 
HETATM   40  C   UNL     1      -0.041  -2.358   4.802  1.00  0.00     0.214 A 
BRANCH  36  41
HETATM   41  N   UNL     1      -2.944  -4.254   7.424  1.00  0.00    -0.382 N 
HETATM   42  H   UNL     1      -2.014  -4.518   7.724  1.00  0.00     0.157 HD
HETATM   43  H   UNL     1      -3.682  -4.246   8.117  1.00  0.00     0.157 HD
ENDBRANCH  36  41
ENDBRANCH  29  32
BRANCH  30  44
HETATM   44  O   UNL     1      -1.667   1.871   3.136  1.00  0.00    -0.388 OA
HETATM   45  H   UNL     1      -2.588   1.631   3.369  1.00  0.00     0.210 HD
ENDBRANCH  30  44
BRANCH  31  46
HETATM   46  O   UNL     1       0.714   2.945   3.592  1.00  0.00    -0.390 OA
HETATM   47  H   UNL     1      -0.193   3.261   3.380  1.00  0.00     0.210 HD
ENDBRANCH  31  46
ENDBRANCH  26  27
ENDBRANCH   1  26
TORSDOF 12
