REMARK  8 active torsions:
REMARK  status: ('A' for Active; 'I' for Inactive)
REMARK    1  A    between atoms: C_2  and  C_3 
REMARK    2  A    between atoms: C_3  and  O_4 
REMARK    3  A    between atoms: O_4  and  C_5 
REMARK    4  A    between atoms: C_6  and  O_7 
REMARK    5  A    between atoms: C_10  and  C_11 
REMARK    6  A    between atoms: C_11  and  N_12 
REMARK    7  A    between atoms: N_12  and  C_13 
REMARK    8  A    between atoms: C_20  and  C_21 
REMARK       I    between atoms: C_21  and  N_22 
ROOT
HETATM    1  C   UNL     1       7.271  -6.205   6.374  1.00  0.00     0.009 A 
HETATM    2  C   UNL     1       6.667  -6.352   7.636  1.00  0.00     0.039 A 
HETATM    3  C   UNL     1       7.177  -7.275   8.573  1.00  0.00     0.030 A 
HETATM    4  C   UNL     1       8.262  -8.060   8.211  1.00  0.00     0.063 A 
HETATM    5  N   UNL     1       8.517  -8.849   9.296  1.00  0.00    -0.277 N 
HETATM    6  H   UNL     1       9.241  -9.553   9.386  1.00  0.00     0.189 HD
HETATM    7  N   UNL     1       7.695  -8.644  10.340  1.00  0.00    -0.168 NA
HETATM    8  C   UNL     1       6.859  -7.674   9.905  1.00  0.00     0.156 A 
HETATM    9  C   UNL     1       8.870  -7.979   6.958  1.00  0.00     0.034 A 
HETATM   10  C   UNL     1       8.343  -7.047   6.050  1.00  0.00     0.026 A 
ENDROOT
BRANCH   1  11
HETATM   11  N   UNL     1       6.678  -5.329   5.457  1.00  0.00    -0.289 NA
HETATM   12  H   UNL     1       6.144  -4.596   5.918  1.00  0.00     0.128 HD
BRANCH  11  13
HETATM   13  C   UNL     1       7.453  -4.825   4.333  1.00  0.00     0.131 C 
BRANCH  13  14
HETATM   14  C   UNL     1       6.612  -3.849   3.542  1.00  0.00    -0.042 A 
HETATM   15  C   UNL     1       6.908  -2.478   3.537  1.00  0.00     0.048 A 
HETATM   16  C   UNL     1       6.132  -1.583   2.788  1.00  0.00     0.102 A 
HETATM   17  C   UNL     1       5.061  -2.061   2.010  1.00  0.00     0.102 A 
HETATM   18  C   UNL     1       4.751  -3.423   2.035  1.00  0.00     0.040 A 
HETATM   19  C   UNL     1       5.518  -4.308   2.797  1.00  0.00     0.011 A 
BRANCH  16  20
HETATM   20  O   UNL     1       6.389  -0.235   2.720  1.00  0.00    -0.353 OA
HETATM   21  C   UNL     1       7.001   0.344   3.865  1.00  0.00     0.210 C 
ENDBRANCH  16  20
BRANCH  17  22
HETATM   22  O   UNL     1       4.371  -1.120   1.287  1.00  0.00    -0.348 OA
BRANCH  22  23
HETATM   23  C   UNL     1       3.399  -1.588   0.354  1.00  0.00     0.175 C 
BRANCH  23  24
HETATM   24  C   UNL     1       2.893  -0.384  -0.436  1.00  0.00     0.022 C 
HETATM   25  C   UNL     1       1.844  -0.781  -1.459  1.00  0.00     0.007 C 
ENDBRANCH  23  24
ENDBRANCH  22  23
ENDBRANCH  17  22
ENDBRANCH  13  14
ENDBRANCH  11  13
ENDBRANCH   1  11
BRANCH   8  26
HETATM   26  C   UNL     1       5.786  -7.149  10.761  1.00  0.00     0.270 C 
HETATM   27  N   UNL     1       5.716  -7.739  11.994  1.00  0.00    -0.365 N 
HETATM   28  H   UNL     1       6.383  -8.467  12.221  1.00  0.00     0.159 HD
HETATM   29  H   UNL     1       5.013  -7.444  12.652  1.00  0.00     0.159 HD
HETATM   30  O   UNL     1       5.006  -6.260  10.435  1.00  0.00    -0.266 OA
ENDBRANCH   8  26
TORSDOF 8
