REMARK  7 active torsions:
REMARK  status: ('A' for Active; 'I' for Inactive)
REMARK    1  A    between atoms: C_2  and  C_3 
REMARK    2  A    between atoms: C_6  and  C_7 
REMARK       I    between atoms: C_7  and  N_8 
REMARK    3  A    between atoms: N_8  and  C_9 
REMARK    4  A    between atoms: C_9  and  C_10 
REMARK    5  A    between atoms: N_19  and  C_20 
REMARK    6  A    between atoms: C_20  and  C_21 
REMARK    7  A    between atoms: C_21  and  C_22 
ROOT
HETATM    1  C   UNL     1       6.621  -3.923   3.170  1.00  0.00     0.249 C 
HETATM    2  C   UNL     1       6.718  -3.240   4.549  1.00  0.00     0.266 C 
HETATM    3  O   UNL     1       6.747  -3.770   5.647  1.00  0.00    -0.270 OA
HETATM    4  N   UNL     1       6.737  -1.863   4.332  1.00  0.00    -0.310 N 
HETATM    5  C   UNL     1       6.813  -1.578   3.010  1.00  0.00     0.129 C 
HETATM    6  C   UNL     1       6.813  -2.712   2.312  1.00  0.00     0.101 C 
HETATM    7  N   UNL     1       6.853  -0.343   2.425  1.00  0.00    -0.284 N 
HETATM    8  C   UNL     1       7.021  -0.226   1.043  1.00  0.00     0.331 C 
HETATM    9  O   UNL     1       7.077   0.844   0.442  1.00  0.00    -0.246 OA
HETATM   10  N   UNL     1       7.089  -1.413   0.348  1.00  0.00    -0.275 N 
HETATM   11  C   UNL     1       6.906  -2.667   0.866  1.00  0.00     0.262 C 
HETATM   12  O   UNL     1       6.817  -3.680   0.186  1.00  0.00    -0.267 OA
HETATM   13  H   UNL     1       6.812  -1.203   5.092  1.00  0.00     0.170 HD
HETATM   14  H   UNL     1       7.158  -1.335  -0.655  1.00  0.00     0.173 HD
ENDROOT
BRANCH   1  15
HETATM   15  N   UNL     1       7.606  -4.985   2.907  1.00  0.00    -0.327 N 
HETATM   16  C   UNL     1       8.965  -4.793   2.988  1.00  0.00     0.253 C 
HETATM   17  O   UNL     1       9.463  -3.745   3.380  1.00  0.00    -0.268 OA
HETATM   18  H   UNL     1       7.297  -5.693   2.248  1.00  0.00     0.164 HD
BRANCH  16  19
HETATM   19  C   UNL     1       9.811  -5.925   2.503  1.00  0.00     0.032 A 
HETATM   20  C   UNL     1       9.335  -7.239   2.456  1.00  0.00     0.017 A 
HETATM   21  C   UNL     1      10.143  -8.265   1.951  1.00  0.00     0.009 A 
HETATM   22  C   UNL     1      11.448  -8.017   1.486  1.00  0.00    -0.051 A 
HETATM   23  C   UNL     1      11.923  -6.698   1.581  1.00  0.00     0.009 A 
HETATM   24  C   UNL     1      11.117  -5.665   2.085  1.00  0.00     0.017 A 
BRANCH  22  25
HETATM   25  C   UNL     1      12.297  -9.172   0.921  1.00  0.00    -0.024 C 
HETATM   26  C   UNL     1      11.528  -9.897  -0.207  1.00  0.00     0.019 C 
HETATM   27  C   UNL     1      12.603 -10.178   2.049  1.00  0.00     0.019 C 
HETATM   28  C   UNL     1      13.647  -8.718   0.322  1.00  0.00     0.019 C 
ENDBRANCH  22  25
ENDBRANCH  16  19
ENDBRANCH   1  15
BRANCH   1  29
HETATM   29  C   UNL     1       5.170  -4.427   3.101  1.00  0.00     0.426 C 
HETATM   30  F   UNL     1       4.914  -4.993   1.895  1.00  0.00    -0.167 F 
HETATM   31  F   UNL     1       4.916  -5.383   4.024  1.00  0.00    -0.167 F 
HETATM   32  F   UNL     1       4.259  -3.441   3.273  1.00  0.00    -0.167 F 
ENDBRANCH   1  29
BRANCH   7  33
HETATM   33  C   UNL     1       6.607   0.873   3.197  1.00  0.00     0.140 C 
BRANCH  33  34
HETATM   34  C   UNL     1       7.878   1.501   3.772  1.00  0.00     0.059 C 
BRANCH  34  35
HETATM   35  C   UNL     1       7.541   2.771   4.518  1.00  0.00    -0.057 A 
HETATM   36  C   UNL     1       7.031   2.717   5.823  1.00  0.00     0.007 A 
HETATM   37  C   UNL     1       6.653   3.888   6.483  1.00  0.00     0.001 A 
HETATM   38  C   UNL     1       6.784   5.121   5.848  1.00  0.00     0.000 A 
HETATM   39  C   UNL     1       7.295   5.186   4.554  1.00  0.00     0.001 A 
HETATM   40  C   UNL     1       7.670   4.017   3.889  1.00  0.00     0.007 A 
ENDBRANCH  34  35
ENDBRANCH  33  34
ENDBRANCH   7  33
TORSDOF 7
