REMARK  8 active torsions:
REMARK  status: ('A' for Active; 'I' for Inactive)
REMARK    1  A    between atoms: C_2  and  S_3 
REMARK    2  A    between atoms: S_3  and  C_4 
REMARK    3  A    between atoms: C_7  and  C_8 
REMARK    4  A    between atoms: C_8  and  C_9 
REMARK       I    between atoms: C_9  and  N_10 
REMARK    5  A    between atoms: N_10  and  C_11 
REMARK    6  A    between atoms: N_17  and  C_19 
REMARK    7  A    between atoms: C_19  and  C_20 
REMARK    8  A    between atoms: C_27  and  C_28 
REMARK       I    between atoms: C_28  and  N_29 
ROOT
HETATM    1  C   UNL     1       0.692  -2.477  -5.592  1.00  0.00     0.093 A 
HETATM    2  S   UNL     1       0.846  -0.997  -6.420  1.00  0.00    -0.074 SA
HETATM    3  C   UNL     1       0.882  -0.105  -4.988  1.00  0.00     0.018 A 
HETATM    4  C   UNL     1       0.738  -0.899  -3.869  1.00  0.00    -0.023 A 
HETATM    5  C   UNL     1       0.779  -0.306  -2.484  1.00  0.00     0.068 C 
HETATM    6  C   UNL     1       0.689   1.234  -2.503  1.00  0.00     0.240 C 
HETATM    7  N   UNL     1       1.521   1.857  -3.621  1.00  0.00    -0.063 N 
HETATM    8  H   UNL     1       1.338   2.866  -3.594  1.00  0.00     0.280 HD
HETATM    9  C   UNL     1       1.045   1.374  -4.980  1.00  0.00     0.282 C 
HETATM   10  C   UNL     1       0.589  -2.298  -4.216  1.00  0.00     0.073 A 
ENDROOT
BRANCH   1  11
HETATM   11  N   UNL     1       0.745  -3.682  -6.280  1.00  0.00    -0.320 N 
HETATM   12  C   UNL     1       0.768  -3.855  -7.659  1.00  0.00     0.226 C 
HETATM   13  O   UNL     1       0.618  -2.984  -8.511  1.00  0.00    -0.273 OA
HETATM   14  H   UNL     1       0.769  -4.524  -5.712  1.00  0.00     0.169 HD
BRANCH  12  15
HETATM   15  C   UNL     1       1.004  -5.303  -8.062  1.00  0.00     0.141 C 
BRANCH  15  16
HETATM   16  C   UNL     1      -0.227  -6.167  -7.938  1.00  0.00    -0.049 A 
HETATM   17  C   UNL     1      -1.396  -5.845  -8.640  1.00  0.00     0.009 A 
HETATM   18  C   UNL     1      -2.523  -6.668  -8.560  1.00  0.00     0.019 A 
HETATM   19  C   UNL     1      -2.497  -7.834  -7.792  1.00  0.00     0.001 A 
HETATM   20  C   UNL     1      -1.337  -8.152  -7.080  1.00  0.00     0.019 A 
HETATM   21  C   UNL     1      -0.208  -7.331  -7.159  1.00  0.00     0.009 A 
BRANCH  19  22
HETATM   22  S   UNL     1      -3.964  -8.844  -7.710  1.00  0.00    -0.126 SA
BRANCH  22  23
HETATM   23  C   UNL     1      -3.315 -10.489  -8.217  1.00  0.00     0.044 C 
HETATM   24  C   UNL     1      -2.923 -10.493  -9.692  1.00  0.00     0.021 C 
HETATM   25  C   UNL     1      -4.400 -11.531  -7.951  1.00  0.00     0.021 C 
ENDBRANCH  22  23
ENDBRANCH  19  22
ENDBRANCH  15  16
ENDBRANCH  12  15
ENDBRANCH   1  11
BRANCH  10  26
HETATM   26  C   UNL     1       0.421  -3.369  -3.234  1.00  0.00     0.252 C 
HETATM   27  N   UNL     1      -0.276  -4.469  -3.651  1.00  0.00    -0.366 N 
HETATM   28  H   UNL     1      -0.949  -4.384  -4.404  1.00  0.00     0.159 HD
HETATM   29  H   UNL     1      -0.526  -5.119  -2.913  1.00  0.00     0.159 HD
HETATM   30  O   UNL     1       0.828  -3.277  -2.083  1.00  0.00    -0.268 OA
ENDBRANCH  10  26
BRANCH   7  31
HETATM   31  C   UNL     1       3.017   1.714  -3.447  1.00  0.00     0.273 C 
BRANCH  31  32
HETATM   32  C   UNL     1       3.556   2.604  -2.360  1.00  0.00    -0.033 A 
HETATM   33  C   UNL     1       3.879   2.082  -1.099  1.00  0.00     0.009 A 
HETATM   34  C   UNL     1       4.355   2.920  -0.089  1.00  0.00     0.001 A 
HETATM   35  C   UNL     1       4.516   4.283  -0.329  1.00  0.00     0.000 A 
HETATM   36  C   UNL     1       4.204   4.812  -1.579  1.00  0.00     0.001 A 
HETATM   37  C   UNL     1       3.725   3.979  -2.590  1.00  0.00     0.009 A 
ENDBRANCH  31  32
ENDBRANCH   7  31
TORSDOF 8
