REMARK  3 active torsions:
REMARK  status: ('A' for Active; 'I' for Inactive)
REMARK    1  A    between atoms: C_4  and  N_5 
REMARK    2  A    between atoms: N_5  and  C_6 
REMARK    3  A    between atoms: C_13  and  C_14 
ROOT
HETATM    1  C   UNL     1       4.430  -3.728  -0.048  1.00  0.00     0.741 A 
HETATM    2  N   UNL     1       5.049  -4.919  -0.107  1.00  0.00    -0.066 NA
HETATM    3  C   UNL     1       4.304  -6.033  -0.271  1.00  0.00     0.069 A 
HETATM    4  C   UNL     1       2.935  -5.984  -0.393  1.00  0.00     0.053 A 
HETATM    5  C   UNL     1       2.130  -7.197  -0.602  1.00  0.00     0.163 C 
HETATM    6  O   UNL     1       0.913  -7.106  -0.727  1.00  0.00    -0.292 OA
HETATM    7  C   UNL     1       2.860  -8.517  -0.729  1.00  0.00     0.093 C 
HETATM    8  C   UNL     1       4.172  -8.512   0.064  1.00  0.00     0.031 C 
HETATM    9  C   UNL     1       5.054  -7.332  -0.370  1.00  0.00     0.070 C 
HETATM   10  C   UNL     1       2.371  -4.734  -0.317  1.00  0.00     0.153 A 
HETATM   11  N   UNL     1       3.093  -3.602  -0.145  1.00  0.00    -0.073 NA
ENDROOT
BRANCH   1  12
HETATM   12  N   UNL     1       5.133  -2.553   0.099  1.00  0.00    -0.015 N 
HETATM   13  H   UNL     1       4.566  -1.727   0.078  1.00  0.00     0.203 HD
BRANCH  12  14
HETATM   14  C   UNL     1       6.487  -2.299   0.171  1.00  0.00     0.742 A 
HETATM   15  N   UNL     1       6.826  -1.001   0.212  1.00  0.00    -0.066 NA
HETATM   16  C   UNL     1       8.141  -0.690   0.275  1.00  0.00     0.062 A 
HETATM   17  C   UNL     1       8.457   0.777   0.308  1.00  0.00     0.072 C 
HETATM   18  C   UNL     1       9.148  -1.661   0.303  1.00  0.00     0.018 A 
HETATM   19  C   UNL     1       8.685  -2.978   0.261  1.00  0.00     0.088 A 
HETATM   20  C   UNL     1      10.541  -1.409   0.369  1.00  0.00     0.016 A 
HETATM   21  N   UNL     1       7.388  -3.287   0.196  1.00  0.00    -0.062 NA
HETATM   22  C   UNL     1       9.613  -4.012   0.287  1.00  0.00     0.033 A 
HETATM   23  C   UNL     1      10.987  -3.769   0.352  1.00  0.00     0.002 A 
HETATM   24  C   UNL     1      11.454  -2.462   0.393  1.00  0.00     0.001 A 
ENDBRANCH  12  14
ENDBRANCH   1  12
BRANCH   8  25
HETATM   25  C   UNL     1       4.907  -9.835  -0.054  1.00  0.00    -0.053 A 
HETATM   26  C   UNL     1       5.412 -10.294  -1.281  1.00  0.00     0.007 A 
HETATM   27  C   UNL     1       6.096 -11.508  -1.361  1.00  0.00     0.001 A 
HETATM   28  C   UNL     1       6.283 -12.282  -0.219  1.00  0.00     0.000 A 
HETATM   29  C   UNL     1       5.784 -11.843   1.005  1.00  0.00     0.001 A 
HETATM   30  C   UNL     1       5.100 -10.628   1.088  1.00  0.00     0.007 A 
ENDBRANCH   8  25
TORSDOF 3
