REMARK  8 active torsions:
REMARK  status: ('A' for Active; 'I' for Inactive)
REMARK    1  A    between atoms: C_4  and  C_5 
REMARK    2  A    between atoms: C_5  and  N_6 
REMARK    3  A    between atoms: C_5  and  C_33 
REMARK    4  A    between atoms: N_10  and  C_11 
REMARK    5  A    between atoms: C_13  and  N_14 
REMARK    6  A    between atoms: N_14  and  C_15 
REMARK    7  A    between atoms: C_22  and  N_23 
REMARK    8  A    between atoms: N_23  and  C_24 
ROOT
HETATM    1  C   UNL     1       1.781   3.920   3.683  1.00  0.00     0.756 A 
HETATM    2  N   UNL     1       1.036   3.543   4.678  1.00  0.00     0.131 NA
HETATM    3  C   UNL     1      -0.038   4.314   5.020  1.00  0.00     0.757 A 
HETATM    4  N   UNL     1      -0.261   5.443   4.299  1.00  0.00    -0.016 N 
HETATM    5  C   UNL     1       0.494   5.758   3.224  1.00  0.00     0.735 A 
HETATM    6  N   UNL     1       1.493   5.002   2.887  1.00  0.00     0.129 NA
HETATM    7  H   UNL     1      -1.129   5.926   4.463  1.00  0.00     0.203 HD
ENDROOT
BRANCH   1   8
HETATM    8  N   UNL     1       2.913   3.182   3.358  1.00  0.00    -0.210 N 
HETATM    9  C   UNL     1       3.607   3.459   2.094  1.00  0.00     0.169 C 
HETATM   10  C   UNL     1       2.915   2.681   0.958  1.00  0.00     0.256 C 
HETATM   11  N   UNL     1       2.903   1.182   1.298  1.00  0.00    -0.056 N 
HETATM   12  H   UNL     1       3.883   0.912   1.425  1.00  0.00     0.281 HD
HETATM   13  C   UNL     1       2.249   0.923   2.662  1.00  0.00     0.256 C 
HETATM   14  C   UNL     1       2.962   1.762   3.747  1.00  0.00     0.169 C 
BRANCH  11  15
HETATM   15  C   UNL     1       2.424   0.316   0.135  1.00  0.00     0.254 C 
BRANCH  15  16
HETATM   16  C   UNL     1       1.014   0.611  -0.369  1.00  0.00    -0.023 A 
HETATM   17  C   UNL     1       0.852   1.148  -1.664  1.00  0.00     0.009 A 
HETATM   18  C   UNL     1      -0.413   1.472  -2.160  1.00  0.00     0.001 A 
HETATM   19  C   UNL     1      -1.543   1.261  -1.379  1.00  0.00     0.000 A 
HETATM   20  C   UNL     1      -1.410   0.723  -0.103  1.00  0.00     0.001 A 
HETATM   21  C   UNL     1      -0.145   0.401   0.397  1.00  0.00     0.009 A 
ENDBRANCH  15  16
BRANCH  15  22
HETATM   22  C   UNL     1       2.845  -1.143   0.304  1.00  0.00    -0.023 A 
HETATM   23  C   UNL     1       4.206  -1.474   0.117  1.00  0.00     0.009 A 
HETATM   24  C   UNL     1       4.666  -2.781   0.288  1.00  0.00     0.001 A 
HETATM   25  C   UNL     1       3.777  -3.785   0.653  1.00  0.00     0.000 A 
HETATM   26  C   UNL     1       2.432  -3.484   0.840  1.00  0.00     0.001 A 
HETATM   27  C   UNL     1       1.969  -2.176   0.669  1.00  0.00     0.009 A 
ENDBRANCH  15  22
ENDBRANCH  11  15
ENDBRANCH   1   8
BRANCH   3  28
HETATM   28  N   UNL     1      -0.731   3.857   6.013  1.00  0.00    -0.062 NA
BRANCH  28  29
HETATM   29  C   UNL     1      -1.836   4.580   6.481  1.00  0.00     0.076 A 
HETATM   30  C   UNL     1      -3.122   4.069   6.295  1.00  0.00     0.032 A 
HETATM   31  C   UNL     1      -4.237   4.770   6.759  1.00  0.00     0.002 A 
HETATM   32  C   UNL     1      -4.070   5.988   7.418  1.00  0.00     0.000 A 
HETATM   33  C   UNL     1      -2.789   6.496   7.627  1.00  0.00     0.002 A 
HETATM   34  C   UNL     1      -1.676   5.787   7.171  1.00  0.00     0.032 A 
ENDBRANCH  28  29
ENDBRANCH   3  28
BRANCH   5  35
HETATM   35  N   UNL     1       0.096   6.901   2.580  1.00  0.00    -0.189 N 
HETATM   36  H   UNL     1      -0.219   7.654   3.180  1.00  0.00     0.184 HD
BRANCH  35  37
HETATM   37  C   UNL     1       0.614   7.359   1.350  1.00  0.00     0.049 A 
HETATM   38  C   UNL     1       0.872   6.487   0.283  1.00  0.00     0.030 A 
HETATM   39  C   UNL     1       1.393   6.962  -0.923  1.00  0.00     0.002 A 
HETATM   40  C   UNL     1       1.676   8.317  -1.074  1.00  0.00     0.000 A 
HETATM   41  C   UNL     1       1.430   9.196  -0.023  1.00  0.00     0.002 A 
HETATM   42  C   UNL     1       0.898   8.721   1.180  1.00  0.00     0.030 A 
ENDBRANCH  35  37
ENDBRANCH   5  35
TORSDOF 8
