REMARK  3 active torsions:
REMARK  status: ('A' for Active; 'I' for Inactive)
REMARK    1  A    between atoms: C_3  and  N_4 
REMARK       I    between atoms: N_4  and  C_5 
REMARK    2  A    between atoms: C_5  and  C_6 
REMARK    3  A    between atoms: C_6  and  C_7 
ROOT
HETATM    1  C   UNL     1      -1.399   2.734  -0.039  1.00  0.00     0.286 C 
HETATM    2  N   UNL     1      -2.180   3.402   1.090  1.00  0.00    -0.056 N 
HETATM    3  H   UNL     1      -2.854   2.708   1.438  1.00  0.00     0.278 HD
HETATM    4  H   UNL     1      -1.527   3.536   1.892  1.00  0.00     0.278 HD
HETATM    5  C   UNL     1      -2.925   4.667   0.777  1.00  0.00     0.209 C 
HETATM    6  C   UNL     1      -3.746   4.477  -0.520  1.00  0.00     0.115 C 
HETATM    7  N   UNL     1      -2.970   3.873  -1.602  1.00  0.00    -0.353 N 
HETATM    8  C   UNL     1      -2.095   2.835  -1.405  1.00  0.00     0.249 C 
HETATM    9  O   UNL     1      -1.806   2.090  -2.335  1.00  0.00    -0.271 OA
HETATM   10  C   UNL     1      -1.973   5.863   0.743  1.00  0.00     0.035 C 
HETATM   11  C   UNL     1      -2.703   7.137   0.330  1.00  0.00     0.002 C 
HETATM   12  C   UNL     1      -3.401   6.955  -1.014  1.00  0.00     0.002 C 
HETATM   13  C   UNL     1      -4.391   5.791  -0.975  1.00  0.00     0.027 C 
HETATM   14  H   UNL     1      -3.400   3.836  -2.525  1.00  0.00     0.163 HD
ENDROOT
BRANCH   1  15
HETATM   15  C   UNL     1       0.037   3.257  -0.213  1.00  0.00     0.146 C 
BRANCH  15  16
HETATM   16  C   UNL     1       0.750   3.518   1.082  1.00  0.00     0.224 C 
HETATM   17  N   UNL     1       2.021   3.990   1.129  1.00  0.00    -0.326 N 
HETATM   18  H   UNL     1       2.335   4.137   2.089  1.00  0.00     0.169 HD
HETATM   19  O   UNL     1       0.134   3.359   2.144  1.00  0.00    -0.273 OA
BRANCH  17  20
HETATM   20  C   UNL     1       2.993   4.361   0.167  1.00  0.00     0.056 A 
HETATM   21  C   UNL     1       2.856   4.224  -1.216  1.00  0.00     0.031 A 
HETATM   22  C   UNL     1       3.878   4.639  -2.082  1.00  0.00     0.002 A 
HETATM   23  C   UNL     1       5.052   5.193  -1.582  1.00  0.00     0.002 A 
HETATM   24  C   UNL     1       5.216   5.331  -0.208  1.00  0.00     0.026 A 
HETATM   25  C   UNL     1       4.198   4.918   0.655  1.00  0.00     0.060 A 
HETATM   26 CL   UNL     1       4.453   5.125   2.358  1.00  0.00    -0.082 Cl
ENDBRANCH  17  20
ENDBRANCH  15  16
ENDBRANCH   1  15
TORSDOF 3
