REMARK  6 active torsions:
REMARK  status: ('A' for Active; 'I' for Inactive)
REMARK    1  A    between atoms: C_4  and  O_5 
REMARK    2  A    between atoms: O_5  and  C_6 
REMARK    3  A    between atoms: C_6  and  C_7 
REMARK    4  A    between atoms: C_11  and  C_12 
REMARK    5  A    between atoms: C_12  and  N_13 
REMARK       I    between atoms: N_13  and  C_14 
REMARK       I    between atoms: C_14  and  N_15 
REMARK    6  A    between atoms: N_15  and  C_16 
ROOT
HETATM    1  C   UNL     1       6.759   0.205   0.150  1.00  0.00     0.165 C 
ENDROOT
BRANCH   1   2
HETATM    2  C   UNL     1       5.250   0.181   0.139  1.00  0.00    -0.007 A 
HETATM    3  C   UNL     1       4.516   0.560  -0.998  1.00  0.00     0.077 A 
HETATM    4  C   UNL     1       3.117   0.537  -0.965  1.00  0.00     0.044 A 
HETATM    5  C   UNL     1       2.434   0.109   0.182  1.00  0.00    -0.059 A 
HETATM    6  C   UNL     1       0.934   0.062   0.209  1.00  0.00     0.048 C 
HETATM    7  C   UNL     1       3.167  -0.318   1.293  1.00  0.00     0.007 A 
HETATM    8  C   UNL     1       4.562  -0.277   1.274  1.00  0.00     0.012 A 
BRANCH   3   9
HETATM    9  O   UNL     1       5.249   0.966  -2.080  1.00  0.00    -0.342 OA
BRANCH   9  10
HETATM   10  C   UNL     1       4.622   0.875  -3.364  1.00  0.00     0.293 C 
BRANCH  10  11
HETATM   11  C   UNL     1       5.662   1.001  -4.467  1.00  0.00     0.408 C 
HETATM   12  F   UNL     1       6.608   0.041  -4.370  1.00  0.00    -0.169 F 
HETATM   13  F   UNL     1       5.075   0.866  -5.680  1.00  0.00    -0.169 F 
HETATM   14  F   UNL     1       6.275   2.203  -4.446  1.00  0.00    -0.169 F 
ENDBRANCH  10  11
ENDBRANCH   9  10
ENDBRANCH   3   9
ENDBRANCH   1   2
BRANCH   1  15
HETATM   15  N   UNL     1       7.302  -1.115  -0.093  1.00  0.00    -0.339 N 
HETATM   16  C   UNL     1       8.664  -1.245  -0.263  1.00  0.00     0.321 C 
HETATM   17  N   UNL     1       8.994  -2.553  -0.536  1.00  0.00    -0.307 N 
HETATM   18  O   UNL     1       9.443  -0.308  -0.159  1.00  0.00    -0.247 OA
HETATM   19  H   UNL     1       8.325  -3.231  -0.207  1.00  0.00     0.170 HD
HETATM   20  H   UNL     1       6.756  -1.696  -0.711  1.00  0.00     0.164 HD
BRANCH  17  21
HETATM   21  C   UNL     1      10.252  -3.024  -0.976  1.00  0.00     0.059 A 
HETATM   22  C   UNL     1      10.544  -4.398  -0.914  1.00  0.00    -0.032 A 
HETATM   23  C   UNL     1       9.593  -5.401  -0.326  1.00  0.00     0.050 C 
HETATM   24  C   UNL     1      11.777  -4.846  -1.409  1.00  0.00     0.028 A 
HETATM   25  C   UNL     1      12.667  -3.927  -1.941  1.00  0.00     0.117 A 
HETATM   26  N   UNL     1      12.419  -2.607  -2.013  1.00  0.00    -0.271 NA
HETATM   27  C   UNL     1      11.223  -2.185  -1.527  1.00  0.00     0.146 A 
ENDBRANCH  17  21
ENDBRANCH   1  15
TORSDOF 6
