REMARK  2 active torsions:
REMARK  status: ('A' for Active; 'I' for Inactive)
REMARK    1  A    between atoms: C_9  and  C_10 
REMARK       I    between atoms: C_10  and  N_11 
REMARK    2  A    between atoms: N_11  and  C_12 
ROOT
HETATM    1  C   UNL     1       3.742  -4.816  -0.156  1.00  0.00     0.276 C 
HETATM    2  N   UNL     1       5.087  -4.874   0.140  1.00  0.00    -0.317 N 
HETATM    3  O   UNL     1       3.052  -5.757  -0.535  1.00  0.00    -0.266 OA
HETATM    4  H   UNL     1       5.498  -3.990   0.450  1.00  0.00     0.169 HD
ENDROOT
BRANCH   1   5
HETATM    5  C   UNL     1       3.183  -3.467   0.031  1.00  0.00     0.147 A 
HETATM    6  N   UNL     1       3.943  -2.429   0.439  1.00  0.00    -0.169 NA
HETATM    7  N   UNL     1       3.082  -1.393   0.475  1.00  0.00    -0.275 N 
HETATM    8  C   UNL     1       1.806  -1.720   0.115  1.00  0.00     0.086 A 
HETATM    9  H   UNL     1       3.423  -0.479   0.756  1.00  0.00     0.189 HD
HETATM   10  C   UNL     1       0.755  -0.760   0.088  1.00  0.00     0.103 A 
HETATM   11  C   UNL     1       1.837  -3.063  -0.178  1.00  0.00     0.073 A 
HETATM   12  O   UNL     1       0.963   0.560   0.396  1.00  0.00    -0.320 OA
HETATM   13  C   UNL     1      -0.582  -0.935  -0.227  1.00  0.00     0.041 A 
HETATM   14  C   UNL     1      -0.223   1.205   0.274  1.00  0.00     0.142 A 
HETATM   15  C   UNL     1      -1.209   0.329  -0.107  1.00  0.00     0.027 A 
ENDBRANCH   1   5
BRANCH   2  16
HETATM   16  C   UNL     1       5.944  -5.947   0.072  1.00  0.00     0.102 A 
HETATM   17  C   UNL     1       7.380  -5.687   0.475  1.00  0.00     0.218 A 
HETATM   18  O   UNL     1       7.714  -4.560   0.840  1.00  0.00    -0.284 OA
HETATM   19  C   UNL     1       8.346  -6.836   0.409  1.00  0.00     0.078 A 
HETATM   20 BR   UNL     1      10.122  -6.574   0.892  1.00  0.00    -0.045 Br
HETATM   21  C   UNL     1       7.864  -8.018  -0.005  1.00  0.00     0.111 A 
HETATM   22  N   UNL     1       6.557  -8.217  -0.361  1.00  0.00    -0.372 N 
HETATM   23  C   UNL     1       5.642  -7.196  -0.316  1.00  0.00     0.121 A 
HETATM   24  H   UNL     1       6.254  -9.137  -0.670  1.00  0.00     0.164 HD
ENDBRANCH   2  16
TORSDOF 2
