REMARK  9 active torsions:
REMARK  status: ('A' for Active; 'I' for Inactive)
REMARK    1  A    between atoms: O_2  and  C_3 
REMARK    2  A    between atoms: C_6  and  C_7 
REMARK    3  A    between atoms: C_8  and  C_9 
REMARK    4  A    between atoms: C_9  and  O_10 
REMARK    5  A    between atoms: O_10  and  C_11 
REMARK    6  A    between atoms: C_14  and  C_15 
REMARK    7  A    between atoms: C_17  and  O_18 
REMARK    8  A    between atoms: N_26  and  C_28 
REMARK    9  A    between atoms: C_28  and  C_29 
ROOT
HETATM    1  C   UNL     1       9.468  -1.831   1.441  1.00  0.00     0.243 C 
HETATM    2  N   UNL     1       8.334  -0.870   1.393  1.00  0.00    -0.235 NA
HETATM    3  C   UNL     1       8.569   0.242   1.994  1.00  0.00     0.173 C 
HETATM    4  C   UNL     1       9.762   0.536   2.749  1.00  0.00     0.057 A 
HETATM    5  C   UNL     1      10.526  -0.545   3.119  1.00  0.00     0.087 A 
HETATM    6  S   UNL     1      11.884  -0.119   4.037  1.00  0.00    -0.074 SA
HETATM    7  C   UNL     1      11.529   1.538   3.863  1.00  0.00     0.018 A 
HETATM    8  C   UNL     1      10.354   1.765   3.162  1.00  0.00    -0.024 A 
HETATM    9  C   UNL     1       9.865   3.152   2.878  1.00  0.00     0.068 C 
HETATM   10  C   UNL     1      10.981   4.190   3.086  1.00  0.00     0.240 C 
HETATM   11  N   UNL     1      11.751   3.958   4.388  1.00  0.00    -0.063 N 
HETATM   12  H   UNL     1      12.495   4.662   4.410  1.00  0.00     0.280 HD
HETATM   13  C   UNL     1      12.441   2.600   4.373  1.00  0.00     0.282 C 
HETATM   14  N   UNL     1      10.201  -1.792   2.716  1.00  0.00    -0.357 N 
HETATM   15  H   UNL     1      10.872  -2.541   2.844  1.00  0.00     0.162 HD
ENDROOT
BRANCH   1  16
HETATM   16  C   UNL     1      10.452  -1.614   0.271  1.00  0.00    -0.014 A 
HETATM   17  C   UNL     1      10.142  -0.738  -0.791  1.00  0.00     0.014 A 
HETATM   18  C   UNL     1      11.103  -0.389  -1.741  1.00  0.00     0.038 A 
HETATM   19  C   UNL     1      12.382  -0.921  -1.634  1.00  0.00     0.079 A 
HETATM   20  C   UNL     1      12.682  -1.885  -0.677  1.00  0.00     0.038 A 
HETATM   21  C   UNL     1      11.716  -2.236   0.266  1.00  0.00     0.014 A 
BRANCH  19  22
HETATM   22  O   UNL     1      13.401  -0.517  -2.494  1.00  0.00    -0.276 OA
BRANCH  22  23
HETATM   23  C   UNL     1      13.904   0.728  -2.161  1.00  0.00     0.288 C 
HETATM   24  O   UNL     1      13.439   1.540  -1.369  1.00  0.00    -0.260 OA
BRANCH  23  25
HETATM   25  C   UNL     1      15.169   1.003  -2.878  1.00  0.00     0.083 C 
HETATM   26  C   UNL     1      15.878   0.076  -3.539  1.00  0.00     0.017 C 
BRANCH  26  27
HETATM   27  C   UNL     1      17.194   0.355  -4.124  1.00  0.00    -0.036 A 
HETATM   28  C   UNL     1      18.225  -0.569  -3.928  1.00  0.00     0.014 A 
HETATM   29  C   UNL     1      19.494  -0.337  -4.464  1.00  0.00     0.037 A 
HETATM   30  C   UNL     1      19.750   0.811  -5.216  1.00  0.00     0.068 A 
HETATM   31  C   UNL     1      18.722   1.728  -5.429  1.00  0.00     0.037 A 
HETATM   32  C   UNL     1      17.449   1.499  -4.889  1.00  0.00     0.014 A 
BRANCH  30  33
HETATM   33  O   UNL     1      21.032   0.914  -5.677  1.00  0.00    -0.356 OA
HETATM   34  C   UNL     1      21.329   2.024  -6.515  1.00  0.00     0.210 C 
ENDBRANCH  30  33
ENDBRANCH  26  27
ENDBRANCH  23  25
ENDBRANCH  22  23
ENDBRANCH  19  22
ENDBRANCH   1  16
BRANCH   3  35
HETATM   35  O   UNL     1       7.643   1.216   1.934  1.00  0.00    -0.344 OA
HETATM   36  H   UNL     1       6.892   0.853   1.433  1.00  0.00     0.219 HD
ENDBRANCH   3  35
BRANCH  11  37
HETATM   37  C   UNL     1      10.945   4.164   5.651  1.00  0.00     0.273 C 
BRANCH  37  38
HETATM   38  C   UNL     1      10.318   5.528   5.744  1.00  0.00    -0.033 A 
HETATM   39  C   UNL     1       8.925   5.673   5.650  1.00  0.00     0.009 A 
HETATM   40  C   UNL     1       8.341   6.939   5.697  1.00  0.00     0.001 A 
HETATM   41  C   UNL     1       9.140   8.071   5.840  1.00  0.00     0.000 A 
HETATM   42  C   UNL     1      10.523   7.940   5.945  1.00  0.00     0.001 A 
HETATM   43  C   UNL     1      11.112   6.675   5.900  1.00  0.00     0.009 A 
ENDBRANCH  37  38
ENDBRANCH  11  37
TORSDOF 9
