REMARK  8 active torsions:
REMARK  status: ('A' for Active; 'I' for Inactive)
REMARK    1  A    between atoms: C_2  and  N_3 
REMARK    2  A    between atoms: C_9  and  C_10 
REMARK    3  A    between atoms: C_16  and  C_17 
REMARK       I    between atoms: C_17  and  N_18 
REMARK    4  A    between atoms: N_18  and  C_19 
REMARK    5  A    between atoms: C_19  and  C_20 
REMARK    6  A    between atoms: C_20  and  C_21 
REMARK    7  A    between atoms: C_23  and  O_24 
REMARK    8  A    between atoms: C_25  and  O_26 
ROOT
HETATM    1  N   UNL     1       2.850  -0.584   1.450  1.00  0.00    -0.248 N 
HETATM    2  N   UNL     1       3.096   0.404   2.345  1.00  0.00    -0.182 NA
HETATM    3  C   UNL     1       3.284  -0.253   3.494  1.00  0.00     0.155 A 
HETATM    4  C   UNL     1       3.204  -1.654   3.348  1.00  0.00     0.046 A 
HETATM    5  C   UNL     1       2.905  -1.838   2.005  1.00  0.00     0.159 A 
HETATM    6  N   UNL     1       2.694  -3.010   1.375  1.00  0.00    -0.228 NA
HETATM    7  C   UNL     1       2.787  -4.103   2.172  1.00  0.00     0.077 A 
HETATM    8  C   UNL     1       3.069  -4.047   3.532  1.00  0.00     0.051 A 
HETATM    9  C   UNL     1       3.298  -2.805   4.139  1.00  0.00     0.049 A 
ENDROOT
BRANCH   9  10
HETATM   10  C   UNL     1       3.572  -2.773   5.587  1.00  0.00     0.252 C 
HETATM   11  N   UNL     1       4.469  -1.825   6.040  1.00  0.00    -0.357 N 
HETATM   12  H   UNL     1       5.065  -1.373   5.357  1.00  0.00     0.162 HD
HETATM   13  O   UNL     1       3.043  -3.609   6.310  1.00  0.00    -0.268 OA
BRANCH  11  14
HETATM   14  C   UNL     1       4.961  -1.906   7.406  1.00  0.00     0.127 C 
BRANCH  14  15
HETATM   15  C   UNL     1       5.353  -0.542   7.972  1.00  0.00     0.058 C 
BRANCH  15  16
HETATM   16  C   UNL     1       5.825  -0.671   9.401  1.00  0.00    -0.054 A 
HETATM   17  C   UNL     1       4.893  -0.712  10.452  1.00  0.00     0.046 A 
HETATM   18  C   UNL     1       5.337  -0.898  11.757  1.00  0.00     0.099 A 
HETATM   19  C   UNL     1       6.695  -1.043  12.025  1.00  0.00     0.098 A 
HETATM   20  C   UNL     1       7.629  -1.002  11.001  1.00  0.00     0.040 A 
HETATM   21  C   UNL     1       7.193  -0.819   9.686  1.00  0.00     0.010 A 
BRANCH  18  22
HETATM   22  O   UNL     1       4.471  -0.959  12.814  1.00  0.00    -0.358 OA
HETATM   23  H   UNL     1       3.566  -0.871  12.468  1.00  0.00     0.218 HD
ENDBRANCH  18  22
BRANCH  19  24
HETATM   24  O   UNL     1       7.120  -1.238  13.308  1.00  0.00    -0.358 OA
HETATM   25  H   UNL     1       6.298  -1.244  13.837  1.00  0.00     0.218 HD
ENDBRANCH  19  24
ENDBRANCH  15  16
ENDBRANCH  14  15
ENDBRANCH  11  14
ENDBRANCH   9  10
BRANCH   7  26
HETATM   26  C   UNL     1       2.530  -5.367   1.461  1.00  0.00     0.033 A 
HETATM   27  S   UNL     1       3.203  -6.857   2.000  1.00  0.00    -0.100 SA
HETATM   28  C   UNL     1       2.479  -7.736   0.728  1.00  0.00     0.050 A 
HETATM   29  C   UNL     1       1.749  -6.926  -0.109  1.00  0.00     0.008 A 
HETATM   30  C   UNL     1       1.788  -5.563   0.307  1.00  0.00     0.021 A 
ENDBRANCH   7  26
BRANCH   1  31
HETATM   31  C   UNL     1       2.532  -0.236   0.069  1.00  0.00     0.104 C 
HETATM   32  C   UNL     1       1.104  -0.634  -0.306  1.00  0.00     0.034 C 
HETATM   33  C   UNL     1       3.552  -0.801  -0.919  1.00  0.00     0.034 C 
ENDBRANCH   1  31
TORSDOF 8
