REMARK  4 active torsions:
REMARK  status: ('A' for Active; 'I' for Inactive)
REMARK    1  A    between atoms: C_3  and  N_4 
REMARK    2  A    between atoms: N_4  and  C_5 
REMARK    3  A    between atoms: C_5  and  C_6 
REMARK    4  A    between atoms: C_8  and  C_9 
REMARK       I    between atoms: C_9  and  N_10 
ROOT
HETATM    1  N   UNL     1       2.452  -2.363   0.318  1.00  0.00    -0.372 N 
HETATM    2  H   UNL     1       1.656  -2.477  -0.309  1.00  0.00     0.161 HD
ENDROOT
BRANCH   1   3
HETATM    3  C   UNL     1       3.158  -1.195   0.126  1.00  0.00     0.107 A 
HETATM    4  C   UNL     1       2.505   0.049   0.027  1.00  0.00    -0.017 A 
HETATM    5  C   UNL     1       1.008   0.200   0.090  1.00  0.00     0.052 C 
HETATM    6  C   UNL     1       3.271   1.214  -0.124  1.00  0.00     0.024 A 
HETATM    7  C   UNL     1       4.664   1.145  -0.166  1.00  0.00    -0.009 A 
HETATM    8  C   UNL     1       5.273  -0.120  -0.065  1.00  0.00     0.043 A 
HETATM    9  C   UNL     1       5.471   2.285  -0.303  1.00  0.00     0.014 A 
HETATM   10  N   UNL     1       4.499  -1.208   0.080  1.00  0.00    -0.342 N 
HETATM   11  C   UNL     1       6.668  -0.236  -0.114  1.00  0.00     0.030 A 
HETATM   12  H   UNL     1       4.958  -2.108   0.118  1.00  0.00     0.167 HD
HETATM   13  C   UNL     1       7.458   0.906  -0.252  1.00  0.00     0.002 A 
HETATM   14  C   UNL     1       6.861   2.162  -0.343  1.00  0.00     0.001 A 
ENDBRANCH   1   3
BRANCH   1  15
HETATM   15  C   UNL     1       2.981  -3.618   0.830  1.00  0.00     0.160 C 
BRANCH  15  16
HETATM   16  C   UNL     1       3.931  -4.297  -0.126  1.00  0.00    -0.040 A 
HETATM   17  C   UNL     1       3.655  -4.383  -1.499  1.00  0.00     0.026 A 
HETATM   18  C   UNL     1       4.534  -5.044  -2.371  1.00  0.00     0.032 A 
HETATM   19  C   UNL     1       5.702  -5.625  -1.872  1.00  0.00     0.017 A 
HETATM   20  C   UNL     1       5.977  -5.562  -0.506  1.00  0.00     0.002 A 
HETATM   21  C   UNL     1       5.096  -4.911   0.362  1.00  0.00     0.009 A 
BRANCH  18  22
HETATM   22  C   UNL     1       4.194  -5.061  -3.815  1.00  0.00     0.249 C 
HETATM   23  N   UNL     1       4.668  -6.096  -4.566  1.00  0.00    -0.366 N 
HETATM   24  H   UNL     1       5.054  -6.941  -4.168  1.00  0.00     0.159 HD
HETATM   25  H   UNL     1       4.345  -6.148  -5.526  1.00  0.00     0.159 HD
HETATM   26  O   UNL     1       3.491  -4.180  -4.294  1.00  0.00    -0.268 OA
ENDBRANCH  18  22
ENDBRANCH  15  16
ENDBRANCH   1  15
TORSDOF 4
