REMARK  5 active torsions:
REMARK  status: ('A' for Active; 'I' for Inactive)
REMARK    1  A    between atoms: C_5  and  C_6 
REMARK    2  A    between atoms: C_11  and  C_12 
REMARK       I    between atoms: C_12  and  N_13 
REMARK    3  A    between atoms: N_13  and  C_14 
REMARK    4  A    between atoms: C_16  and  O_17 
REMARK    5  A    between atoms: C_23  and  C_24 
ROOT
HETATM    1  C   UNL     1       6.707   0.113  -0.619  1.00  0.00     0.118 C 
HETATM    2  N   UNL     1       7.179  -1.114  -1.250  1.00  0.00    -0.366 N 
HETATM    3  C   UNL     1       7.667  -1.149  -2.506  1.00  0.00     0.123 A 
HETATM    4  N   UNL     1       7.788  -0.019  -3.264  1.00  0.00    -0.240 N 
HETATM    5  N   UNL     1       8.351  -0.228  -4.471  1.00  0.00    -0.165 NA
HETATM    6  C   UNL     1       8.544  -1.568  -4.500  1.00  0.00     0.148 A 
HETATM    7  C   UNL     1       8.128  -2.176  -3.285  1.00  0.00     0.089 A 
HETATM    8  C   UNL     1       7.407   1.305  -2.816  1.00  0.00     0.221 C 
HETATM    9  C   UNL     1       7.334   1.354  -1.279  1.00  0.00     0.066 C 
HETATM   10  H   UNL     1       6.985  -1.972  -0.734  1.00  0.00     0.161 HD
ENDROOT
BRANCH   6  11
HETATM   11  C   UNL     1       9.121  -2.252  -5.672  1.00  0.00     0.276 C 
HETATM   12  N   UNL     1       9.360  -1.378  -6.714  1.00  0.00    -0.322 N 
HETATM   13  H   UNL     1       9.092  -0.418  -6.505  1.00  0.00     0.169 HD
HETATM   14  O   UNL     1       9.335  -3.459  -5.664  1.00  0.00    -0.266 OA
BRANCH  12  15
HETATM   15  C   UNL     1       9.893  -1.657  -7.984  1.00  0.00     0.037 A 
HETATM   16  C   UNL     1      10.315  -2.926  -8.388  1.00  0.00     0.066 A 
HETATM   17  C   UNL     1      10.832  -3.110  -9.670  1.00  0.00     0.067 A 
HETATM   18  C   UNL     1      10.937  -2.049 -10.560  1.00  0.00     0.036 A 
HETATM   19  C   UNL     1      10.519  -0.781 -10.166  1.00  0.00     0.005 A 
HETATM   20  C   UNL     1      10.001  -0.586  -8.882  1.00  0.00     0.029 A 
BRANCH  17  21
HETATM   21  O   UNL     1      11.253  -4.337 -10.093  1.00  0.00    -0.361 OA
HETATM   22  H   UNL     1      11.114  -4.973  -9.371  1.00  0.00     0.217 HD
ENDBRANCH  17  21
ENDBRANCH  12  15
ENDBRANCH   6  11
BRANCH   8  23
HETATM   23  C   UNL     1       6.139   1.747  -3.511  1.00  0.00     0.409 C 
HETATM   24  F   UNL     1       5.130   0.862  -3.428  1.00  0.00    -0.169 F 
HETATM   25  F   UNL     1       5.696   2.915  -2.978  1.00  0.00    -0.169 F 
HETATM   26  F   UNL     1       6.351   1.992  -4.826  1.00  0.00    -0.169 F 
ENDBRANCH   8  23
BRANCH   1  27
HETATM   27  C   UNL     1       5.197   0.157  -0.474  1.00  0.00    -0.035 A 
HETATM   28  C   UNL     1       4.627   1.039   0.461  1.00  0.00     0.010 A 
HETATM   29  C   UNL     1       3.243   1.096   0.651  1.00  0.00     0.007 A 
HETATM   30  C   UNL     1       2.392   0.268  -0.085  1.00  0.00    -0.062 A 
HETATM   31  C   UNL     1       0.904   0.339   0.089  1.00  0.00     0.048 C 
HETATM   32  C   UNL     1       2.947  -0.603  -1.026  1.00  0.00     0.007 A 
HETATM   33  C   UNL     1       4.332  -0.665  -1.210  1.00  0.00     0.010 A 
ENDBRANCH   1  27
TORSDOF 5
