REMARK  4 active torsions:
REMARK  status: ('A' for Active; 'I' for Inactive)
REMARK    1  A    between atoms: C_7  and  C_8 
REMARK    2  A    between atoms: C_11  and  O_12 
REMARK    3  A    between atoms: C_17  and  C_18 
REMARK    4  A    between atoms: C_25  and  C_26 
REMARK       I    between atoms: C_26  and  N_27 
ROOT
HETATM    1  C   UNL     1       0.995   0.250   0.134  1.00  0.00     0.070 C 
HETATM    2  C   UNL     1       2.497   0.106   0.086  1.00  0.00     0.037 C 
HETATM    3  N   UNL     1       3.215   1.301   0.038  1.00  0.00    -0.192 N 
HETATM    4  C   UNL     1       4.550   1.355   0.207  1.00  0.00     0.726 A 
HETATM    5  N   UNL     1       5.262   0.193   0.233  1.00  0.00    -0.083 N 
HETATM    6  N   UNL     1       6.561   0.408   0.509  1.00  0.00    -0.135 NA
HETATM    7  C   UNL     1       6.596   1.753   0.570  1.00  0.00     0.199 A 
HETATM    8  N   UNL     1       5.362   2.361   0.394  1.00  0.00    -0.041 NA
HETATM    9  C   UNL     1       4.677  -1.129  -0.003  1.00  0.00     0.202 C 
HETATM   10  C   UNL     1       3.154  -1.085   0.087  1.00  0.00     0.062 C 
HETATM   11  H   UNL     1       2.685   2.163   0.140  1.00  0.00     0.184 HD
ENDROOT
BRANCH   7  12
HETATM   12  C   UNL     1       7.817   2.522   0.797  1.00  0.00     0.014 A 
HETATM   13  C   UNL     1       9.042   1.880   1.026  1.00  0.00     0.018 A 
HETATM   14  C   UNL     1      10.207   2.625   1.228  1.00  0.00     0.037 A 
HETATM   15  C   UNL     1      10.174   4.020   1.200  1.00  0.00     0.068 A 
HETATM   16  C   UNL     1       8.959   4.668   0.981  1.00  0.00     0.037 A 
HETATM   17  C   UNL     1       7.789   3.923   0.782  1.00  0.00     0.018 A 
BRANCH  15  18
HETATM   18  O   UNL     1      11.384   4.625   1.403  1.00  0.00    -0.356 OA
HETATM   19  C   UNL     1      11.422   6.041   1.278  1.00  0.00     0.210 C 
ENDBRANCH  15  18
ENDBRANCH   7  12
BRANCH   9  20
HETATM   20  C   UNL     1       5.206  -1.659  -1.341  1.00  0.00    -0.028 A 
HETATM   21  C   UNL     1       6.310  -2.532  -1.352  1.00  0.00     0.012 A 
HETATM   22  C   UNL     1       6.819  -3.018  -2.558  1.00  0.00     0.043 A 
HETATM   23  C   UNL     1       6.233  -2.631  -3.756  1.00  0.00     0.116 A 
HETATM   24  F   UNL     1       6.722  -3.100  -4.911  1.00  0.00    -0.206 F 
HETATM   25  C   UNL     1       5.152  -1.760  -3.773  1.00  0.00     0.043 A 
HETATM   26  C   UNL     1       4.642  -1.268  -2.571  1.00  0.00     0.012 A 
ENDBRANCH   9  20
BRANCH  10  27
HETATM   27  C   UNL     1       2.427  -2.356   0.348  1.00  0.00     0.249 C 
HETATM   28  N   UNL     1       2.934  -3.490  -0.198  1.00  0.00    -0.366 N 
HETATM   29  H   UNL     1       3.655  -3.526  -0.904  1.00  0.00     0.159 HD
HETATM   30  H   UNL     1       2.400  -4.338  -0.045  1.00  0.00     0.159 HD
HETATM   31  O   UNL     1       1.425  -2.415   1.051  1.00  0.00    -0.268 OA
ENDBRANCH  10  27
TORSDOF 4
