REMARK  1 active torsions:
REMARK  status: ('A' for Active; 'I' for Inactive)
REMARK    1  A    between atoms: C_10  and  N_11 
ROOT
HETATM    1  C   UNL     1       0.959   0.092   0.298  1.00  0.00     0.015 C 
HETATM    2  C   UNL     1       2.487   0.004   0.130  1.00  0.00    -0.036 C 
HETATM    3  C   UNL     1       2.798  -0.013  -1.381  1.00  0.00     0.015 C 
HETATM    4  C   UNL     1       2.990  -1.289   0.802  1.00  0.00     0.093 C 
HETATM    5  C   UNL     1       4.499  -1.367   0.913  1.00  0.00     0.163 C 
HETATM    6  O   UNL     1       5.087  -2.438   1.026  1.00  0.00    -0.292 OA
HETATM    7  C   UNL     1       5.256  -0.108   0.949  1.00  0.00     0.053 A 
HETATM    8  C   UNL     1       4.636   1.120   0.892  1.00  0.00     0.069 A 
HETATM    9  N   UNL     1       5.328   2.284   0.926  1.00  0.00    -0.066 NA
HETATM   10  C   UNL     1       6.674   2.219   0.975  1.00  0.00     0.728 A 
HETATM   11  N   UNL     1       7.343   1.058   1.029  1.00  0.00    -0.074 NA
HETATM   12  C   UNL     1       6.626  -0.085   1.019  1.00  0.00     0.153 A 
HETATM   13  C   UNL     1       3.137   1.225   0.814  1.00  0.00     0.070 C 
ENDROOT
BRANCH  10  14
HETATM   14  N   UNL     1       7.315   3.448   0.988  1.00  0.00    -0.164 N 
HETATM   15  C   UNL     1       8.617   3.704   0.770  1.00  0.00     0.187 A 
HETATM   16  S   UNL     1       9.145   5.351   0.795  1.00  0.00    -0.049 SA
HETATM   17  N   UNL     1       9.568   2.839   0.504  1.00  0.00    -0.223 NA
HETATM   18  C   UNL     1      10.747   4.863   0.413  1.00  0.00     0.037 A 
HETATM   19  C   UNL     1      10.776   3.475   0.292  1.00  0.00     0.076 A 
HETATM   20  C   UNL     1      11.897   5.649   0.227  1.00  0.00     0.021 A 
HETATM   21  C   UNL     1      11.996   2.846  -0.033  1.00  0.00     0.033 A 
HETATM   22  C   UNL     1      13.146   3.618  -0.227  1.00  0.00     0.002 A 
HETATM   23  C   UNL     1      13.095   5.003  -0.096  1.00  0.00     0.002 A 
HETATM   24  H   UNL     1       6.645   4.200   1.008  1.00  0.00     0.186 HD
ENDBRANCH  10  14
TORSDOF 1
