REMARK  5 active torsions:
REMARK  status: ('A' for Active; 'I' for Inactive)
REMARK    1  A    between atoms: C_3  and  N_4 
REMARK       I    between atoms: N_4  and  C_5 
REMARK    2  A    between atoms: C_9  and  N_10 
REMARK       I    between atoms: N_10  and  C_11 
REMARK    3  A    between atoms: C_11  and  C_12 
REMARK    4  A    between atoms: C_17  and  C_18 
REMARK    5  A    between atoms: C_24  and  C_25 
ROOT
HETATM    1  C   UNL     1       6.629   2.541  -0.027  1.00  0.00     0.148 A 
HETATM    2  N   UNL     1       7.226   3.555  -0.696  1.00  0.00    -0.165 NA
HETATM    3  N   UNL     1       6.530   4.642  -0.308  1.00  0.00    -0.240 N 
HETATM    4  C   UNL     1       5.548   4.372   0.605  1.00  0.00     0.123 A 
HETATM    5  N   UNL     1       4.787   5.349   1.140  1.00  0.00    -0.364 N 
HETATM    6  C   UNL     1       4.817   6.717   0.623  1.00  0.00     0.143 C 
HETATM    7  C   UNL     1       6.230   7.050   0.112  1.00  0.00     0.068 C 
HETATM    8  C   UNL     1       6.851   5.970  -0.796  1.00  0.00     0.221 C 
HETATM    9  C   UNL     1       5.579   3.018   0.803  1.00  0.00     0.089 A 
HETATM   10  H   UNL     1       3.958   5.117   1.687  1.00  0.00     0.162 HD
ENDROOT
BRANCH   1  11
HETATM   11  C   UNL     1       7.058   1.140  -0.181  1.00  0.00     0.276 C 
HETATM   12  N   UNL     1       8.030   1.001  -1.153  1.00  0.00    -0.322 N 
HETATM   13  H   UNL     1       8.284   1.880  -1.600  1.00  0.00     0.169 HD
HETATM   14  O   UNL     1       6.562   0.243   0.493  1.00  0.00    -0.266 OA
BRANCH  12  15
HETATM   15  C   UNL     1       8.658  -0.175  -1.600  1.00  0.00     0.037 A 
HETATM   16  C   UNL     1       8.413  -1.441  -1.064  1.00  0.00     0.059 A 
HETATM   17  C   UNL     1       9.049  -2.599  -1.560  1.00  0.00     0.042 A 
HETATM   18  C   UNL     1      10.012  -2.465  -2.573  1.00  0.00    -0.035 A 
HETATM   19  C   UNL     1      10.869  -3.582  -3.100  1.00  0.00     0.050 C 
HETATM   20  C   UNL     1      10.236  -1.188  -3.124  1.00  0.00     0.011 A 
HETATM   21  C   UNL     1       9.570  -0.059  -2.644  1.00  0.00     0.030 A 
BRANCH  17  22
HETATM   22  N   UNL     1       8.662  -3.800  -0.918  1.00  0.00    -0.327 N 
HETATM   23  C   UNL     1       8.627  -5.078  -1.440  1.00  0.00     0.218 C 
HETATM   24  C   UNL     1       8.235  -6.109  -0.408  1.00  0.00     0.117 C 
HETATM   25  O   UNL     1       8.862  -5.416  -2.593  1.00  0.00    -0.274 OA
HETATM   26  H   UNL     1       8.126  -3.672  -0.068  1.00  0.00     0.169 HD
ENDBRANCH  17  22
ENDBRANCH  12  15
ENDBRANCH   1  11
BRANCH   8  27
HETATM   27  C   UNL     1       6.465   6.096  -2.253  1.00  0.00     0.409 C 
HETATM   28  F   UNL     1       7.258   5.340  -3.050  1.00  0.00    -0.169 F 
HETATM   29  F   UNL     1       5.191   5.747  -2.511  1.00  0.00    -0.169 F 
HETATM   30  F   UNL     1       6.626   7.377  -2.674  1.00  0.00    -0.169 F 
ENDBRANCH   8  27
BRANCH   6  31
HETATM   31  C   UNL     1       3.741   7.043  -0.362  1.00  0.00     0.075 A 
HETATM   32  O   UNL     1       3.603   8.361  -0.691  1.00  0.00    -0.325 OA
HETATM   33  C   UNL     1       2.569   8.447  -1.567  1.00  0.00     0.142 A 
HETATM   34  C   UNL     1       2.035   7.204  -1.806  1.00  0.00     0.027 A 
HETATM   35  C   UNL     1       2.785   6.296  -1.021  1.00  0.00     0.037 A 
ENDBRANCH   6  31
TORSDOF 5
