REMARK  5 active torsions:
REMARK  status: ('A' for Active; 'I' for Inactive)
REMARK    1  A    between atoms: O_2  and  C_3 
REMARK    2  A    between atoms: C_7  and  C_8 
REMARK    3  A    between atoms: C_8  and  N_9 
REMARK       I    between atoms: N_9  and  C_10 
REMARK    4  A    between atoms: C_10  and  C_11 
REMARK    5  A    between atoms: C_13  and  C_14 
ROOT
HETATM    1  N   UNL     1       4.601   6.042   1.352  1.00  0.00    -0.353 N 
HETATM    2  C   UNL     1       5.034   7.144   2.053  1.00  0.00     0.251 C 
HETATM    3  O   UNL     1       4.281   8.015   2.473  1.00  0.00    -0.268 OA
HETATM    4  H   UNL     1       5.258   5.370   0.984  1.00  0.00     0.163 HD
ENDROOT
BRANCH   2   5
HETATM    5  C   UNL     1       6.503   7.270   2.260  1.00  0.00     0.032 A 
HETATM    6  C   UNL     1       7.046   8.559   2.357  1.00  0.00     0.029 A 
HETATM    7  C   UNL     1       8.420   8.745   2.563  1.00  0.00    -0.023 A 
HETATM    8  C   UNL     1       9.242   7.615   2.675  1.00  0.00     0.012 A 
HETATM    9  C   UNL     1       8.703   6.328   2.594  1.00  0.00     0.002 A 
HETATM   10  C   UNL     1       7.334   6.152   2.389  1.00  0.00     0.017 A 
BRANCH   7  11
HETATM   11  C   UNL     1       8.967  10.090   2.646  1.00  0.00    -0.002 A 
HETATM   12  C   UNL     1      10.067  10.445   3.402  1.00  0.00     0.153 A 
HETATM   13  O   UNL     1      10.329  11.773   3.284  1.00  0.00    -0.334 OA
HETATM   14  C   UNL     1       9.388  12.286   2.453  1.00  0.00     0.142 A 
HETATM   15  C   UNL     1       8.526  11.299   2.037  1.00  0.00     0.038 A 
ENDBRANCH   7  11
ENDBRANCH   2   5
BRANCH   1  16
HETATM   16  C   UNL     1       3.193   5.810   1.123  1.00  0.00     0.161 C 
BRANCH  16  17
HETATM   17  C   UNL     1       2.965   5.058  -0.162  1.00  0.00    -0.037 A 
HETATM   18  C   UNL     1       2.356   3.797  -0.162  1.00  0.00     0.054 A 
HETATM   19  C   UNL     1       2.125   3.122  -1.362  1.00  0.00     0.150 A 
HETATM   20  C   UNL     1       2.492   3.683  -2.587  1.00  0.00     0.106 A 
HETATM   21  F   UNL     1       1.539   1.918  -1.289  1.00  0.00    -0.203 F 
HETATM   22  C   UNL     1       3.109   4.938  -2.587  1.00  0.00     0.040 A 
HETATM   23  C   UNL     1       3.339   5.622  -1.389  1.00  0.00     0.012 A 
BRANCH  20  24
HETATM   24  O   UNL     1       2.323   3.143  -3.832  1.00  0.00    -0.353 OA
HETATM   25  C   UNL     1       1.580   1.933  -3.916  1.00  0.00     0.210 C 
ENDBRANCH  20  24
ENDBRANCH  16  17
ENDBRANCH   1  16
TORSDOF 5
