REMARK  6 active torsions:
REMARK  status: ('A' for Active; 'I' for Inactive)
REMARK    1  A    between atoms: N_2  and  C_5 
REMARK    2  A    between atoms: C_5  and  C_6 
REMARK    3  A    between atoms: C_6  and  N_7 
REMARK    4  A    between atoms: C_6  and  C_23 
REMARK       I    between atoms: N_7  and  C_8 
REMARK    5  A    between atoms: C_8  and  C_10 
REMARK    6  A    between atoms: C_13  and  C_17 
ROOT
HETATM    1  N   UNL     1       4.723  -1.183   0.917  1.00  0.00    -0.347 N 
HETATM    2  C   UNL     1       4.548  -0.123   1.778  1.00  0.00     0.252 C 
HETATM    3  O   UNL     1       3.822   0.826   1.493  1.00  0.00    -0.268 OA
HETATM    4  H   UNL     1       5.521  -1.785   1.098  1.00  0.00     0.163 HD
ENDROOT
BRANCH   2   5
HETATM    5  C   UNL     1       5.276  -0.167   3.073  1.00  0.00     0.032 A 
HETATM    6  C   UNL     1       5.595   1.042   3.694  1.00  0.00     0.018 A 
HETATM    7  C   UNL     1       6.248   1.043   4.927  1.00  0.00     0.014 A 
HETATM    8  C   UNL     1       6.587  -0.162   5.564  1.00  0.00    -0.017 A 
HETATM    9  C   UNL     1       6.275  -1.388   4.940  1.00  0.00    -0.050 A 
HETATM   10  C   UNL     1       6.603  -2.719   5.567  1.00  0.00     0.049 C 
HETATM   11  C   UNL     1       5.606  -1.376   3.699  1.00  0.00     0.024 A 
BRANCH   8  12
HETATM   12  C   UNL     1       7.225  -0.097   6.865  1.00  0.00     0.011 A 
HETATM   13  C   UNL     1       6.860  -0.659   8.109  1.00  0.00     0.152 A 
HETATM   14  N   UNL     1       7.720  -0.351   9.082  1.00  0.00    -0.187 NA
HETATM   15  N   UNL     1       8.632   0.420   8.469  1.00  0.00    -0.289 N 
HETATM   16  H   UNL     1       9.401   0.787   9.020  1.00  0.00     0.188 HD
HETATM   17  C   UNL     1       8.378   0.608   7.139  1.00  0.00     0.123 A 
ENDBRANCH   8  12
ENDBRANCH   2   5
BRANCH   1  18
HETATM   18  C   UNL     1       4.238  -1.171  -0.468  1.00  0.00     0.143 C 
BRANCH  18  19
HETATM   19  C   UNL     1       2.681  -1.108  -0.613  1.00  0.00     0.263 C 
BRANCH  19  20
HETATM   20  N   UNL     1       2.092   0.256  -0.289  1.00  0.00    -0.076 N 
HETATM   21  C   UNL     1       2.264   1.268  -1.379  1.00  0.00     0.269 C 
HETATM   22  H   UNL     1       2.642   0.621   0.519  1.00  0.00     0.279 HD
HETATM   23  C   UNL     1       0.675   0.174   0.186  1.00  0.00     0.269 C 
ENDBRANCH  19  20
ENDBRANCH  18  19
BRANCH  18  24
HETATM   24  C   UNL     1       4.753  -2.405  -1.189  1.00  0.00    -0.034 A 
HETATM   25  C   UNL     1       5.534  -2.266  -2.347  1.00  0.00     0.009 A 
HETATM   26  C   UNL     1       5.996  -3.393  -3.029  1.00  0.00     0.001 A 
HETATM   27  C   UNL     1       5.687  -4.669  -2.563  1.00  0.00     0.000 A 
HETATM   28  C   UNL     1       4.918  -4.822  -1.412  1.00  0.00     0.001 A 
HETATM   29  C   UNL     1       4.454  -3.698  -0.727  1.00  0.00     0.009 A 
ENDBRANCH  18  24
ENDBRANCH   1  18
TORSDOF 6
