REMARK  5 active torsions:
REMARK  status: ('A' for Active; 'I' for Inactive)
REMARK    1  A    between atoms: C_8  and  C_9 
REMARK    2  A    between atoms: C_9  and  N_10 
REMARK    3  A    between atoms: N_10  and  C_13 
REMARK    4  A    between atoms: C_13  and  C_14 
REMARK    5  A    between atoms: C_13  and  C_19 
ROOT
HETATM    1  N   UNL     1       2.750  -2.988  -0.135  1.00  0.00    -0.056 N 
HETATM    2  H   UNL     1       2.997  -2.578  -1.043  1.00  0.00     0.278 HD
HETATM    3  H   UNL     1       3.338  -2.533   0.575  1.00  0.00     0.278 HD
ENDROOT
BRANCH   1   4
HETATM    4  C   UNL     1       1.327  -2.669   0.150  1.00  0.00     0.275 C 
BRANCH   4   5
HETATM    5  C   UNL     1       1.120  -1.194   0.277  1.00  0.00     0.004 A 
HETATM    6  C   UNL     1       1.742  -0.475   1.286  1.00  0.00     0.113 A 
HETATM    7  C   UNL     1       1.571   0.881   1.436  1.00  0.00     0.105 A 
HETATM    8  O   UNL     1       2.599  -0.994   2.212  1.00  0.00    -0.322 OA
HETATM    9  C   UNL     1       0.772   1.606   0.581  1.00  0.00     0.040 A 
HETATM   10  O   UNL     1       2.274   1.380   2.485  1.00  0.00    -0.323 OA
HETATM   11  C   UNL     1       0.131   0.917  -0.451  1.00  0.00     0.003 A 
HETATM   12  C   UNL     1       0.301  -0.472  -0.604  1.00  0.00     0.012 A 
HETATM   13  C   UNL     1       2.867   0.184   3.021  1.00  0.00     0.352 A 
ENDBRANCH   4   5
ENDBRANCH   1   4
BRANCH   1  14
HETATM   14  C   UNL     1       3.080  -4.449  -0.184  1.00  0.00     0.292 C 
BRANCH  14  15
HETATM   15  C   UNL     1       2.537  -5.147  -1.398  1.00  0.00     0.190 A 
HETATM   16  N   UNL     1       2.122  -6.419  -1.388  1.00  0.00    -0.109 NA
HETATM   17  O   UNL     1       1.661  -6.612  -2.694  1.00  0.00    -0.205 OA
HETATM   18  C   UNL     1       1.808  -5.422  -3.335  1.00  0.00     0.288 A 
HETATM   19  N   UNL     1       2.308  -4.470  -2.579  1.00  0.00    -0.215 NA
ENDBRANCH  14  15
BRANCH  14  20
HETATM   20  C   UNL     1       4.586  -4.659  -0.219  1.00  0.00    -0.020 A 
HETATM   21  C   UNL     1       5.205  -5.411   0.798  1.00  0.00     0.011 A 
HETATM   22  C   UNL     1       6.591  -5.599   0.804  1.00  0.00     0.024 A 
HETATM   23  C   UNL     1       7.375  -5.040  -0.201  1.00  0.00     0.034 A 
HETATM   24 CL   UNL     1       9.077  -5.272  -0.190  1.00  0.00    -0.084 Cl
HETATM   25  C   UNL     1       6.783  -4.294  -1.217  1.00  0.00     0.024 A 
HETATM   26  C   UNL     1       5.398  -4.102  -1.227  1.00  0.00     0.011 A 
ENDBRANCH  14  20
ENDBRANCH   1  14
TORSDOF 5
