REMARK  6 active torsions:
REMARK  status: ('A' for Active; 'I' for Inactive)
REMARK    1  A    between atoms: C_2  and  O_3 
REMARK    2  A    between atoms: O_3  and  C_4 
REMARK    3  A    between atoms: C_5  and  O_6 
REMARK    4  A    between atoms: C_9  and  C_10 
REMARK       I    between atoms: C_10  and  N_11 
REMARK    5  A    between atoms: N_11  and  N_12 
REMARK       I    between atoms: N_12  and  C_13 
REMARK    6  A    between atoms: C_13  and  C_14 
ROOT
HETATM    1  N   UNL     1       8.884  -0.267  -1.956  1.00  0.00    -0.263 N 
HETATM    2  C   UNL     1       9.849  -1.219  -2.213  1.00  0.00     0.270 C 
HETATM    3  O   UNL     1      11.021  -1.063  -1.872  1.00  0.00    -0.266 OA
HETATM    4  H   UNL     1       7.890  -0.365  -2.148  1.00  0.00     0.190 HD
ENDROOT
BRANCH   1   5
HETATM    5  N   UNL     1       9.257   0.887  -1.262  1.00  0.00    -0.263 N 
HETATM    6  C   UNL     1       8.345   1.919  -1.193  1.00  0.00     0.270 C 
HETATM    7  O   UNL     1       7.213   1.836  -1.666  1.00  0.00    -0.266 OA
HETATM    8  H   UNL     1      10.252   0.984  -1.066  1.00  0.00     0.190 HD
BRANCH   6   9
HETATM    9  C   UNL     1       8.800   3.168  -0.527  1.00  0.00     0.036 A 
HETATM   10  C   UNL     1       8.179   4.372  -0.883  1.00  0.00     0.056 A 
HETATM   11  C   UNL     1       8.553   5.572  -0.268  1.00  0.00     0.102 A 
HETATM   12  C   UNL     1       9.549   5.562   0.731  1.00  0.00     0.102 A 
HETATM   13  C   UNL     1      10.162   4.355   1.085  1.00  0.00     0.040 A 
HETATM   14  C   UNL     1       9.789   3.161   0.461  1.00  0.00     0.020 A 
BRANCH  11  15
HETATM   15  O   UNL     1       8.003   6.796  -0.559  1.00  0.00    -0.353 OA
HETATM   16  C   UNL     1       7.047   6.857  -1.608  1.00  0.00     0.210 C 
ENDBRANCH  11  15
BRANCH  12  17
HETATM   17  O   UNL     1       9.850   6.777   1.293  1.00  0.00    -0.349 OA
BRANCH  17  18
HETATM   18  C   UNL     1      10.744   6.796   2.402  1.00  0.00     0.171 C 
HETATM   19  C   UNL     1      10.824   8.223   2.914  1.00  0.00     0.034 C 
ENDBRANCH  17  18
ENDBRANCH  12  17
ENDBRANCH   6   9
ENDBRANCH   1   5
BRANCH   2  20
HETATM   20  C   UNL     1       9.408  -2.468  -2.903  1.00  0.00     0.034 A 
HETATM   21  C   UNL     1       8.165  -2.573  -3.550  1.00  0.00     0.031 A 
HETATM   22  C   UNL     1       7.798  -3.791  -4.159  1.00  0.00    -0.000 A 
HETATM   23  C   UNL     1       8.693  -4.863  -4.119  1.00  0.00     0.043 A 
HETATM   24  C   UNL     1       6.643  -4.238  -4.858  1.00  0.00    -0.023 A 
HETATM   25  N   UNL     1       8.099  -5.921  -4.775  1.00  0.00    -0.358 N 
HETATM   26  C   UNL     1       9.944  -4.777  -3.500  1.00  0.00     0.031 A 
HETATM   27  H   UNL     1       8.524  -6.829  -4.903  1.00  0.00     0.166 HD
HETATM   28  C   UNL     1       6.859  -5.553  -5.213  1.00  0.00     0.017 A 
HETATM   29  C   UNL     1       5.920  -6.426  -5.967  1.00  0.00     0.057 C 
HETATM   30  C   UNL     1       4.511  -5.804  -5.951  1.00  0.00     0.006 C 
HETATM   31  C   UNL     1       4.543  -4.287  -6.220  1.00  0.00     0.005 C 
HETATM   32  C   UNL     1       5.369  -3.524  -5.167  1.00  0.00     0.041 C 
HETATM   33  C   UNL     1      10.283  -3.562  -2.893  1.00  0.00     0.019 A 
ENDBRANCH   2  20
TORSDOF 6
