REMARK  3 active torsions:
REMARK  status: ('A' for Active; 'I' for Inactive)
REMARK    1  A    between atoms: C_6  and  C_7 
REMARK    2  A    between atoms: C_13  and  C_14 
REMARK    3  A    between atoms: C_14  and  C_15 
ROOT
HETATM    1  C   UNL     1       1.117  -0.091  -0.014  1.00  0.00     0.070 C 
HETATM    2  C   UNL     1       2.616  -0.004   0.001  1.00  0.00     0.033 A 
HETATM    3  N   UNL     1       3.291  -1.165  -0.048  1.00  0.00    -0.246 NA
HETATM    4  C   UNL     1       4.633  -1.050  -0.042  1.00  0.00     0.112 A 
HETATM    5  C   UNL     1       5.373   0.127   0.017  1.00  0.00     0.043 A 
HETATM    6  C   UNL     1       4.635   1.340   0.072  1.00  0.00     0.065 A 
HETATM    7  C   UNL     1       3.230   1.239   0.055  1.00  0.00     0.044 A 
HETATM    8  S   UNL     1       5.599  -2.447  -0.114  1.00  0.00    -0.063 SA
HETATM    9  C   UNL     1       7.046  -1.537  -0.117  1.00  0.00     0.085 A 
HETATM   10  C   UNL     1       6.779  -0.184   0.004  1.00  0.00     0.061 A 
HETATM   11  N   UNL     1       7.765   0.743   0.084  1.00  0.00    -0.397 N 
HETATM   12  H   UNL     1       8.721   0.415   0.264  1.00  0.00     0.156 HD
HETATM   13  H   UNL     1       7.613   1.646   0.532  1.00  0.00     0.156 HD
ENDROOT
BRANCH   9  14
HETATM   14  C   UNL     1       8.354  -2.179  -0.138  1.00  0.00     0.201 C 
HETATM   15  O   UNL     1       9.351  -1.668   0.379  1.00  0.00    -0.286 OA
BRANCH  14  16
HETATM   16  C   UNL     1       8.564  -3.484  -0.820  1.00  0.00     0.018 A 
HETATM   17  C   UNL     1       9.379  -4.438  -0.194  1.00  0.00     0.055 A 
HETATM   18  C   UNL     1       9.598  -5.626  -0.857  1.00  0.00     0.106 A 
HETATM   19  C   UNL     1       9.053  -5.878  -2.095  1.00  0.00     0.105 A 
HETATM   20  O   UNL     1      10.354  -6.660  -0.404  1.00  0.00    -0.323 OA
HETATM   21  O   UNL     1       9.398  -7.103  -2.573  1.00  0.00    -0.323 OA
HETATM   22  C   UNL     1       8.261  -4.955  -2.744  1.00  0.00     0.040 A 
HETATM   23  C   UNL     1      10.234  -7.589  -1.502  1.00  0.00     0.352 A 
HETATM   24  C   UNL     1       8.021  -3.736  -2.101  1.00  0.00     0.018 A 
ENDBRANCH  14  16
ENDBRANCH   9  14
BRANCH   6  25
HETATM   25  C   UNL     1       5.271   2.704   0.090  1.00  0.00     0.418 C 
HETATM   26  F   UNL     1       6.324   2.803   0.951  1.00  0.00    -0.166 F 
HETATM   27  F   UNL     1       5.742   3.080  -1.130  1.00  0.00    -0.166 F 
HETATM   28  F   UNL     1       4.407   3.690   0.468  1.00  0.00    -0.166 F 
ENDBRANCH   6  25
TORSDOF 3
