REMARK  5 active torsions:
REMARK  status: ('A' for Active; 'I' for Inactive)
REMARK    1  A    between atoms: C_7  and  C_8 
REMARK    2  A    between atoms: C_16  and  C_17 
REMARK    3  A    between atoms: C_20  and  O_21 
REMARK    4  A    between atoms: C_24  and  C_25 
REMARK       I    between atoms: C_25  and  N_26 
REMARK    5  A    between atoms: N_26  and  C_27 
ROOT
HETATM    1  C   UNL     1       1.019   0.049  -0.065  1.00  0.00     0.070 C 
HETATM    2  C   UNL     1       2.491  -0.065   0.263  1.00  0.00     0.037 A 
HETATM    3  N   UNL     1       3.169   1.148   0.349  1.00  0.00    -0.192 N 
HETATM    4  C   UNL     1       4.497   1.247   0.516  1.00  0.00     0.726 A 
HETATM    5  N   UNL     1       5.228   0.113   0.700  1.00  0.00    -0.083 N 
HETATM    6  N   UNL     1       6.550   0.372   0.715  1.00  0.00    -0.135 NA
HETATM    7  C   UNL     1       6.555   1.717   0.643  1.00  0.00     0.199 A 
HETATM    8  N   UNL     1       5.297   2.280   0.504  1.00  0.00    -0.041 NA
HETATM    9  C   UNL     1       4.656  -1.238   0.731  1.00  0.00     0.202 A 
HETATM   10  C   UNL     1       3.157  -1.242   0.434  1.00  0.00     0.062 A 
HETATM   11  H   UNL     1       2.636   1.997   0.181  1.00  0.00     0.184 HD
ENDROOT
BRANCH  10  12
HETATM   12  C   UNL     1       2.421  -2.555   0.385  1.00  0.00     0.256 C 
HETATM   13  N   UNL     1       3.184  -3.655   0.047  1.00  0.00    -0.323 N 
HETATM   14  H   UNL     1       4.185  -3.562  -0.020  1.00  0.00     0.169 HD
HETATM   15  O   UNL     1       1.229  -2.595   0.677  1.00  0.00    -0.267 OA
BRANCH  13  16
HETATM   16  C   UNL     1       2.722  -4.976  -0.166  1.00  0.00     0.035 A 
HETATM   17  C   UNL     1       1.376  -5.328  -0.272  1.00  0.00     0.029 A 
HETATM   18  C   UNL     1       1.006  -6.655  -0.516  1.00  0.00     0.002 A 
HETATM   19  C   UNL     1       1.979  -7.642  -0.649  1.00  0.00     0.000 A 
HETATM   20  C   UNL     1       3.325  -7.303  -0.543  1.00  0.00     0.002 A 
HETATM   21  C   UNL     1       3.694  -5.976  -0.309  1.00  0.00     0.029 A 
ENDBRANCH  13  16
ENDBRANCH  10  12
BRANCH   9  22
HETATM   22  C   UNL     1       5.037  -1.915   2.046  1.00  0.00    -0.028 A 
HETATM   23  C   UNL     1       4.299  -1.714   3.226  1.00  0.00     0.012 A 
HETATM   24  C   UNL     1       4.685  -2.327   4.421  1.00  0.00     0.037 A 
HETATM   25  C   UNL     1       5.817  -3.134   4.444  1.00  0.00     0.065 A 
HETATM   26  C   UNL     1       6.569  -3.336   3.295  1.00  0.00     0.037 A 
HETATM   27  C   UNL     1       6.184  -2.728   2.100  1.00  0.00     0.012 A 
BRANCH  25  28
HETATM   28  O   UNL     1       6.234  -3.743   5.590  1.00  0.00    -0.361 OA
HETATM   29  H   UNL     1       5.636  -3.487   6.312  1.00  0.00     0.217 HD
ENDBRANCH  25  28
ENDBRANCH   9  22
BRANCH   7  30
HETATM   30  C   UNL     1       7.769   2.525   0.685  1.00  0.00     0.016 A 
HETATM   31  C   UNL     1       9.021   1.928   0.893  1.00  0.00     0.039 A 
HETATM   32  C   UNL     1      10.173   2.712   0.935  1.00  0.00     0.035 A 
HETATM   33 CL   UNL     1      11.704   1.968   1.193  1.00  0.00    -0.084 Cl
HETATM   34  C   UNL     1      10.098   4.094   0.772  1.00  0.00     0.024 A 
HETATM   35  C   UNL     1       8.859   4.698   0.565  1.00  0.00     0.003 A 
HETATM   36  C   UNL     1       7.701   3.917   0.523  1.00  0.00     0.015 A 
ENDBRANCH   7  30
TORSDOF 5
