REMARK  5 active torsions:
REMARK  status: ('A' for Active; 'I' for Inactive)
REMARK    1  A    between atoms: C_4  and  C_5 
REMARK    2  A    between atoms: C_5  and  N_6 
REMARK    3  A    between atoms: C_9  and  N_10 
REMARK       I    between atoms: N_10  and  C_11 
REMARK       I    between atoms: C_11  and  N_12 
REMARK    4  A    between atoms: N_12  and  N_13 
REMARK       I    between atoms: N_13  and  C_14 
REMARK    5  A    between atoms: C_14  and  C_15 
ROOT
HETATM    1  N   UNL     1       5.954  -2.928   0.937  1.00  0.00    -0.336 N 
HETATM    2  C   UNL     1       6.491  -2.231  -0.109  1.00  0.00     0.335 C 
HETATM    3  N   UNL     1       7.846  -2.412  -0.230  1.00  0.00    -0.249 N 
HETATM    4  O   UNL     1       5.829  -1.473  -0.815  1.00  0.00    -0.246 OA
HETATM    5  H   UNL     1       6.593  -3.535   1.439  1.00  0.00     0.164 HD
HETATM    6  H   UNL     1       8.247  -3.311   0.041  1.00  0.00     0.192 HD
ENDROOT
BRANCH   1   7
HETATM    7  C   UNL     1       4.537  -3.011   1.317  1.00  0.00     0.112 C 
HETATM    8  C   UNL     1       3.759  -1.672   1.283  1.00  0.00     0.260 C 
HETATM    9  N   UNL     1       3.388  -1.292  -0.129  1.00  0.00    -0.065 N 
HETATM   10  H   UNL     1       4.300  -1.256  -0.633  1.00  0.00     0.280 HD
HETATM   11  C   UNL     1       2.577  -2.342  -0.824  1.00  0.00     0.235 C 
HETATM   12  C   UNL     1       3.364  -3.646  -0.867  1.00  0.00     0.030 C 
HETATM   13  C   UNL     1       3.802  -4.100   0.523  1.00  0.00     0.028 C 
BRANCH   9  14
HETATM   14  C   UNL     1       2.856   0.110  -0.274  1.00  0.00     0.273 C 
BRANCH  14  15
HETATM   15  C   UNL     1       1.558   0.385   0.436  1.00  0.00    -0.033 A 
HETATM   16  C   UNL     1       1.555   0.889   1.747  1.00  0.00     0.009 A 
HETATM   17  C   UNL     1       0.352   1.125   2.414  1.00  0.00     0.001 A 
HETATM   18  C   UNL     1      -0.860   0.866   1.779  1.00  0.00     0.000 A 
HETATM   19  C   UNL     1      -0.872   0.376   0.476  1.00  0.00     0.001 A 
HETATM   20  C   UNL     1       0.329   0.139  -0.195  1.00  0.00     0.009 A 
ENDBRANCH  14  15
ENDBRANCH   9  14
ENDBRANCH   1   7
BRANCH   3  21
HETATM   21  N   UNL     1       8.479  -1.852  -1.354  1.00  0.00    -0.261 N 
HETATM   22  C   UNL     1       9.394  -2.625  -2.051  1.00  0.00     0.277 C 
HETATM   23  O   UNL     1       9.656  -3.765  -1.660  1.00  0.00    -0.265 OA
HETATM   24  H   UNL     1       8.174  -0.942  -1.687  1.00  0.00     0.190 HD
BRANCH  22  25
HETATM   25  C   UNL     1       9.994  -2.017  -3.227  1.00  0.00     0.075 A 
HETATM   26  S   UNL     1       9.570  -0.442  -3.763  1.00  0.00    -0.077 SA
HETATM   27  C   UNL     1      10.656  -0.525  -5.059  1.00  0.00     0.052 A 
HETATM   28 BR   UNL     1      10.893   0.872  -6.284  1.00  0.00    -0.043 Br
HETATM   29  C   UNL     1      11.339  -1.711  -5.119  1.00  0.00     0.028 A 
HETATM   30  C   UNL     1      10.952  -2.580  -4.055  1.00  0.00     0.026 A 
ENDBRANCH  22  25
ENDBRANCH   3  21
TORSDOF 5
