REMARK  4 active torsions:
REMARK  status: ('A' for Active; 'I' for Inactive)
REMARK       I    between atoms: N_2  and  C_4 
REMARK       I    between atoms: C_4  and  N_6 
REMARK    1  A    between atoms: N_6  and  C_7 
REMARK    2  A    between atoms: C_12  and  C_13 
REMARK    3  A    between atoms: C_15  and  N_16 
REMARK    4  A    between atoms: N_16  and  C_17 
ROOT
HETATM    1  C   UNL     1       5.256  -2.435   2.530  1.00  0.00     0.164 A 
HETATM    2  N   UNL     1       4.886  -2.456   1.242  1.00  0.00    -0.210 NA
HETATM    3  C   UNL     1       4.694  -3.645   0.650  1.00  0.00     0.143 A 
HETATM    4  C   UNL     1       4.877  -4.853   1.340  1.00  0.00     0.039 A 
HETATM    5  C   UNL     1       4.693  -6.146   0.785  1.00  0.00     0.018 A 
HETATM    6  C   UNL     1       4.910  -7.288   1.552  1.00  0.00     0.001 A 
HETATM    7  C   UNL     1       5.304  -7.153   2.876  1.00  0.00     0.002 A 
HETATM    8  C   UNL     1       5.470  -5.878   3.425  1.00  0.00     0.032 A 
HETATM    9  C   UNL     1       5.259  -4.723   2.682  1.00  0.00     0.073 A 
HETATM   10  N   UNL     1       5.431  -3.538   3.280  1.00  0.00    -0.228 NA
ENDROOT
BRANCH   1  11
HETATM   11  C   UNL     1       5.491  -1.105   3.139  1.00  0.00     0.039 A 
HETATM   12  C   UNL     1       5.436  -0.849   4.536  1.00  0.00     0.050 A 
HETATM   13  C   UNL     1       5.638   0.459   5.007  1.00  0.00     0.030 A 
HETATM   14  C   UNL     1       5.920   1.511   4.134  1.00  0.00     0.002 A 
HETATM   15  C   UNL     1       5.991   1.277   2.770  1.00  0.00     0.001 A 
HETATM   16  C   UNL     1       5.775  -0.011   2.283  1.00  0.00     0.018 A 
BRANCH  12  17
HETATM   17  N   UNL     1       5.121  -1.908   5.424  1.00  0.00    -0.308 N 
HETATM   18  C   UNL     1       5.167  -1.920   6.798  1.00  0.00     0.322 C 
HETATM   19  N   UNL     1       4.565  -3.038   7.380  1.00  0.00    -0.343 N 
HETATM   20  O   UNL     1       5.693  -1.050   7.487  1.00  0.00    -0.247 OA
HETATM   21  C   UNL     1       4.645  -3.162   8.826  1.00  0.00     0.154 C 
HETATM   22  C   UNL     1       3.554  -3.867   6.735  1.00  0.00     0.154 C 
HETATM   23  H   UNL     1       5.087  -2.824   4.987  1.00  0.00     0.170 HD
ENDBRANCH  12  17
ENDBRANCH   1  11
BRANCH   3  24
HETATM   24  N   UNL     1       4.317  -3.665  -0.721  1.00  0.00    -0.340 N 
HETATM   25  H   UNL     1       5.007  -4.195  -1.242  1.00  0.00     0.167 HD
BRANCH  24  26
HETATM   26  C   UNL     1       3.824  -2.563  -1.464  1.00  0.00     0.034 A 
HETATM   27  C   UNL     1       4.138  -2.452  -2.828  1.00  0.00     0.032 A 
HETATM   28  C   UNL     1       3.659  -1.396  -3.620  1.00  0.00     0.034 A 
HETATM   29  C   UNL     1       2.826  -0.465  -2.997  1.00  0.00     0.062 A 
HETATM   30  N   UNL     1       2.201   0.662  -3.464  1.00  0.00    -0.278 N 
HETATM   31  C   UNL     1       2.461  -0.556  -1.661  1.00  0.00     0.013 A 
HETATM   32  H   UNL     1       2.241   1.049  -4.399  1.00  0.00     0.189 HD
HETATM   33  N   UNL     1       1.454   1.299  -2.544  1.00  0.00    -0.186 NA
HETATM   34  C   UNL     1       1.615   0.554  -1.447  1.00  0.00     0.152 A 
HETATM   35  C   UNL     1       2.952  -1.622  -0.887  1.00  0.00     0.044 A 
ENDBRANCH  24  26
ENDBRANCH   3  24
TORSDOF 4
