REMARK  8 active torsions:
REMARK  status: ('A' for Active; 'I' for Inactive)
REMARK    1  A    between atoms: N_2  and  C_3 
REMARK    2  A    between atoms: C_6  and  C_7 
REMARK    3  A    between atoms: N_8  and  C_9 
REMARK    4  A    between atoms: C_9  and  C_10 
REMARK    5  A    between atoms: C_14  and  N_15 
REMARK    6  A    between atoms: C_17  and  N_18 
REMARK    7  A    between atoms: C_19  and  C_20 
REMARK    8  A    between atoms: C_26  and  C_27 
ROOT
HETATM    1  C   UNL     1       5.173  -3.871   3.305  1.00  0.00     0.141 A 
HETATM    2  N   UNL     1       6.179  -3.573   4.209  1.00  0.00    -0.324 N 
HETATM    3  C   UNL     1       6.677  -4.775   4.710  1.00  0.00     0.076 A 
HETATM    4  C   UNL     1       5.979  -5.747   4.003  1.00  0.00     0.097 A 
HETATM    5  N   UNL     1       5.025  -5.174   3.204  1.00  0.00    -0.227 NA
ENDROOT
BRANCH   2   6
HETATM    6  C   UNL     1       6.677  -2.228   4.502  1.00  0.00     0.178 C 
BRANCH   6   7
HETATM    7  C   UNL     1       6.688  -1.771   5.931  1.00  0.00     0.068 A 
HETATM    8  C   UNL     1       7.876  -0.964   6.301  1.00  0.00     0.259 A 
HETATM    9  O   UNL     1       8.792  -0.738   5.515  1.00  0.00    -0.267 OA
HETATM   10  N   UNL     1       7.888  -0.455   7.559  1.00  0.00    -0.298 N 
HETATM   11  C   UNL     1       6.860  -0.642   8.417  1.00  0.00     0.181 A 
HETATM   12  H   UNL     1       8.659   0.145   7.798  1.00  0.00     0.171 HD
HETATM   13  N   UNL     1       5.823  -1.348   8.118  1.00  0.00    -0.208 NA
HETATM   14  C   UNL     1       5.727  -1.910   6.869  1.00  0.00     0.117 A 
BRANCH  11  15
HETATM   15  N   UNL     1       6.970  -0.048   9.631  1.00  0.00    -0.272 NA
HETATM   16  H   UNL     1       7.896   0.010  10.031  1.00  0.00     0.127 HD
HETATM   17  H   UNL     1       6.274  -0.390  10.286  1.00  0.00     0.127 HD
ENDBRANCH  11  15
BRANCH  14  18
HETATM   18  N   UNL     1       4.556  -2.594   6.612  1.00  0.00    -0.286 NA
HETATM   19  H   UNL     1       4.726  -3.522   6.235  1.00  0.00     0.125 HD
HETATM   20  H   UNL     1       4.054  -2.674   7.494  1.00  0.00     0.125 HD
ENDBRANCH  14  18
ENDBRANCH   6   7
ENDBRANCH   2   6
BRANCH   1  21
HETATM   21  C   UNL     1       4.338  -2.924   2.569  1.00  0.00     0.010 A 
HETATM   22  C   UNL     1       4.864  -2.049   1.621  1.00  0.00     0.017 A 
HETATM   23  C   UNL     1       4.014  -1.223   0.867  1.00  0.00     0.030 A 
HETATM   24  C   UNL     1       2.613  -1.258   1.000  1.00  0.00     0.029 A 
HETATM   25  C   UNL     1       2.116  -2.131   1.983  1.00  0.00     0.030 A 
HETATM   26  C   UNL     1       2.955  -2.956   2.744  1.00  0.00     0.017 A 
BRANCH  24  27
HETATM   27  N   UNL     1       1.770  -0.450   0.222  1.00  0.00    -0.390 N 
HETATM   28  C   UNL     1       2.299   0.094  -1.029  1.00  0.00     0.149 C 
HETATM   29  C   UNL     1       0.337  -0.746   0.211  1.00  0.00     0.149 C 
ENDBRANCH  24  27
ENDBRANCH   1  21
BRANCH   3  30
HETATM   30  C   UNL     1       7.632  -4.903   5.811  1.00  0.00    -0.007 A 
HETATM   31  C   UNL     1       7.234  -5.553   6.989  1.00  0.00     0.014 A 
HETATM   32  C   UNL     1       8.122  -5.707   8.054  1.00  0.00     0.001 A 
HETATM   33  C   UNL     1       9.419  -5.209   7.951  1.00  0.00     0.000 A 
HETATM   34  C   UNL     1       9.827  -4.564   6.784  1.00  0.00     0.001 A 
HETATM   35  C   UNL     1       8.939  -4.416   5.714  1.00  0.00     0.014 A 
ENDBRANCH   3  30
BRANCH   4  36
HETATM   36  C   UNL     1       6.138  -7.194   4.049  1.00  0.00    -0.005 A 
HETATM   37  C   UNL     1       5.016  -8.008   3.828  1.00  0.00     0.014 A 
HETATM   38  C   UNL     1       5.135  -9.400   3.801  1.00  0.00     0.001 A 
HETATM   39  C   UNL     1       6.380  -9.994   3.988  1.00  0.00     0.000 A 
HETATM   40  C   UNL     1       7.504  -9.199   4.199  1.00  0.00     0.001 A 
HETATM   41  C   UNL     1       7.385  -7.805   4.224  1.00  0.00     0.014 A 
ENDBRANCH   4  36
TORSDOF 8
