REMARK  4 active torsions:
REMARK  status: ('A' for Active; 'I' for Inactive)
REMARK    1  A    between atoms: O_2  and  C_3 
REMARK    2  A    between atoms: C_4  and  C_5 
REMARK    3  A    between atoms: C_9  and  C_10 
REMARK       I    between atoms: C_10  and  N_11 
REMARK    4  A    between atoms: N_11  and  N_12 
ROOT
HETATM    1  C   UNL     1       6.577   2.296  -3.713  1.00  0.00     0.289 C 
HETATM    2  N   UNL     1       7.449   1.600  -4.535  1.00  0.00    -0.241 N 
HETATM    3  O   UNL     1       6.481   3.521  -3.693  1.00  0.00    -0.264 OA
HETATM    4  H   UNL     1       7.472   0.581  -4.525  1.00  0.00     0.192 HD
ENDROOT
BRANCH   1   5
HETATM    5  C   UNL     1       5.746   1.472  -2.872  1.00  0.00     0.121 A 
HETATM    6  N   UNL     1       4.789   2.027  -2.067  1.00  0.00    -0.272 N 
HETATM    7  N   UNL     1       4.059   1.137  -1.380  1.00  0.00    -0.174 NA
HETATM    8  H   UNL     1       4.580   3.016  -1.971  1.00  0.00     0.189 HD
HETATM    9  C   UNL     1       4.597  -0.051  -1.697  1.00  0.00     0.092 A 
HETATM   10  C   UNL     1       5.652   0.114  -2.641  1.00  0.00     0.071 A 
BRANCH   9  11
HETATM   11  C   UNL     1       4.076  -1.308  -1.163  1.00  0.00     0.028 A 
HETATM   12  C   UNL     1       3.864  -1.515   0.210  1.00  0.00     0.080 A 
HETATM   13  C   UNL     1       3.366  -2.738   0.676  1.00  0.00     0.037 A 
HETATM   14  C   UNL     1       3.046  -3.753  -0.225  1.00  0.00     0.003 A 
HETATM   15  C   UNL     1       3.241  -3.557  -1.590  1.00  0.00     0.001 A 
HETATM   16  C   UNL     1       3.756  -2.345  -2.056  1.00  0.00     0.017 A 
BRANCH  12  17
HETATM   17  O   UNL     1       4.240  -0.562   1.124  1.00  0.00    -0.355 OA
HETATM   18  C   UNL     1       3.097   0.006   1.764  1.00  0.00     0.210 C 
ENDBRANCH  12  17
ENDBRANCH   9  11
ENDBRANCH   1   5
BRANCH   2  19
HETATM   19  N   UNL     1       8.253   2.273  -5.417  1.00  0.00    -0.165 NA
HETATM   20  C   UNL     1       8.998   1.552  -6.192  1.00  0.00     0.157 A 
HETATM   21  C   UNL     1       9.105   0.026  -6.263  1.00  0.00     0.277 A 
HETATM   22  C   UNL     1       9.915   2.063  -7.204  1.00  0.00     0.027 A 
HETATM   23  O   UNL     1       8.477  -0.743  -5.566  1.00  0.00    -0.266 OA
HETATM   24  N   UNL     1      10.026  -0.236  -7.254  1.00  0.00    -0.321 N 
HETATM   25  C   UNL     1      10.501   0.952  -7.808  1.00  0.00     0.048 A 
HETATM   26  H   UNL     1      10.301  -1.167  -7.528  1.00  0.00     0.169 HD
HETATM   27  C   UNL     1      11.423   1.094  -8.824  1.00  0.00     0.030 A 
HETATM   28  C   UNL     1      11.744   2.399  -9.221  1.00  0.00     0.002 A 
HETATM   29  C   UNL     1      11.147   3.518  -8.604  1.00  0.00     0.001 A 
HETATM   30  C   UNL     1      10.214   3.357  -7.577  1.00  0.00     0.016 A 
ENDBRANCH   2  19
TORSDOF 4
