REMARK  5 active torsions:
REMARK  status: ('A' for Active; 'I' for Inactive)
REMARK    1  A    between atoms: O_2  and  C_3 
REMARK    2  A    between atoms: C_16  and  C_17 
REMARK    3  A    between atoms: C_19  and  O_20 
REMARK    4  A    between atoms: C_22  and  O_23 
REMARK    5  A    between atoms: O_23  and  C_24 
ROOT
HETATM    1  C   UNL     1       3.087   1.271  -0.113  1.00  0.00     0.069 A 
HETATM    2  C   UNL     1       4.487   1.245  -0.053  1.00  0.00     0.051 A 
HETATM    3  C   UNL     1       5.217   2.444  -0.151  1.00  0.00     0.002 A 
HETATM    4  C   UNL     1       4.519   3.641  -0.315  1.00  0.00     0.043 A 
HETATM    5  N   UNL     1       5.444   4.660  -0.386  1.00  0.00    -0.356 N 
HETATM    6  H   UNL     1       5.198   5.638  -0.496  1.00  0.00     0.166 HD
HETATM    7  C   UNL     1       6.706   4.146  -0.229  1.00  0.00     0.052 A 
HETATM    8  C   UNL     1       6.597   2.773  -0.114  1.00  0.00    -0.019 A 
HETATM    9  C   UNL     1       7.790   1.893   0.051  1.00  0.00     0.069 C 
HETATM   10  C   UNL     1       9.073   2.652  -0.335  1.00  0.00     0.238 C 
HETATM   11  N   UNL     1       9.084   4.032   0.274  1.00  0.00    -0.061 N 
HETATM   12  H   UNL     1       8.987   3.951   1.292  1.00  0.00     0.278 HD
HETATM   13  H   UNL     1       9.981   4.500   0.107  1.00  0.00     0.278 HD
HETATM   14  C   UNL     1       7.975   4.931  -0.213  1.00  0.00     0.269 C 
HETATM   15  C   UNL     1       3.123   3.691  -0.384  1.00  0.00     0.033 A 
HETATM   16  C   UNL     1       2.419   2.483  -0.278  1.00  0.00     0.039 A 
ENDROOT
BRANCH  14  17
HETATM   17  C   UNL     1       7.922   6.186   0.634  1.00  0.00    -0.019 A 
HETATM   18  C   UNL     1       7.374   6.172   1.931  1.00  0.00     0.049 A 
HETATM   19  C   UNL     1       7.344   7.333   2.711  1.00  0.00     0.102 A 
HETATM   20  C   UNL     1       7.892   8.528   2.212  1.00  0.00     0.102 A 
HETATM   21  C   UNL     1       8.461   8.540   0.938  1.00  0.00     0.040 A 
HETATM   22  C   UNL     1       8.473   7.382   0.153  1.00  0.00     0.012 A 
BRANCH  19  23
HETATM   23  O   UNL     1       6.833   7.376   3.983  1.00  0.00    -0.353 OA
HETATM   24  C   UNL     1       5.820   6.432   4.309  1.00  0.00     0.210 C 
ENDBRANCH  19  23
BRANCH  20  25
HETATM   25  O   UNL     1       7.833   9.609   3.049  1.00  0.00    -0.343 OA
BRANCH  25  26
HETATM   26  C   UNL     1       7.992  10.919   2.515  1.00  0.00     0.129 C 
HETATM   27  C   UNL     1       6.807  11.358   1.655  1.00  0.00     0.032 C 
HETATM   28  C   UNL     1       6.847  12.871   1.756  1.00  0.00     0.002 C 
HETATM   29  C   UNL     1       7.149  13.115   3.226  1.00  0.00     0.002 C 
HETATM   30  C   UNL     1       8.000  11.928   3.675  1.00  0.00     0.032 C 
ENDBRANCH  25  26
ENDBRANCH  20  25
ENDBRANCH  14  17
BRANCH   1  31
HETATM   31  O   UNL     1       2.500   0.040   0.004  1.00  0.00    -0.356 OA
HETATM   32  C   UNL     1       1.077  -0.003  -0.008  1.00  0.00     0.210 C 
ENDBRANCH   1  31
TORSDOF 5
