REMARK  6 active torsions:
REMARK  status: ('A' for Active; 'I' for Inactive)
REMARK    1  A    between atoms: C_3  and  C_4 
REMARK    2  A    between atoms: C_9  and  C_10 
REMARK    3  A    between atoms: C_10  and  O_11 
REMARK    4  A    between atoms: C_10  and  C_12 
REMARK    5  A    between atoms: C_12  and  N_13 
REMARK    6  A    between atoms: C_17  and  C_18 
ROOT
HETATM    1  C   UNL     1      -2.540  -2.606  -0.394  1.00  0.00     0.271 C 
ENDROOT
BRANCH   1   2
HETATM    2  C   UNL     1      -1.946  -2.372  -1.810  1.00  0.00     0.177 C 
BRANCH   2   3
HETATM    3  C   UNL     1      -0.714  -3.201  -2.131  1.00  0.00    -0.027 A 
HETATM    4  C   UNL     1       0.354  -3.275  -1.217  1.00  0.00     0.025 A 
HETATM    5  C   UNL     1       1.486  -4.075  -1.467  1.00  0.00     0.048 A 
HETATM    6  C   UNL     1       1.567  -4.776  -2.674  1.00  0.00     0.016 A 
HETATM    7  C   UNL     1       0.542  -4.677  -3.611  1.00  0.00     0.001 A 
HETATM    8  C   UNL     1      -0.587  -3.897  -3.344  1.00  0.00     0.010 A 
BRANCH   5   9
HETATM    9  C   UNL     1       2.572  -4.186  -0.420  1.00  0.00     0.417 C 
HETATM   10  F   UNL     1       3.640  -4.930  -0.808  1.00  0.00    -0.166 F 
HETATM   11  F   UNL     1       3.057  -2.971  -0.049  1.00  0.00    -0.166 F 
HETATM   12  F   UNL     1       2.099  -4.763   0.721  1.00  0.00    -0.166 F 
ENDBRANCH   5   9
ENDBRANCH   2   3
BRANCH   2  13
HETATM   13  O   UNL     1      -3.021  -2.634  -2.727  1.00  0.00    -0.389 OA
HETATM   14  H   UNL     1      -2.811  -2.143  -3.547  1.00  0.00     0.210 HD
ENDBRANCH   2  13
ENDBRANCH   1   2
BRANCH   1  15
HETATM   15  N   UNL     1      -3.451  -3.846  -0.351  1.00  0.00    -0.068 N 
HETATM   16  H   UNL     1      -3.990  -3.777  -1.233  1.00  0.00     0.280 HD
HETATM   17  C   UNL     1      -2.684  -5.144  -0.401  1.00  0.00     0.235 C 
HETATM   18  C   UNL     1      -3.629  -6.334  -0.312  1.00  0.00     0.037 C 
HETATM   19  C   UNL     1      -4.492  -6.288   0.955  1.00  0.00     0.025 C 
HETATM   20  C   UNL     1      -5.289  -4.977   0.918  1.00  0.00     0.037 C 
HETATM   21  C   UNL     1      -4.392  -3.751   0.823  1.00  0.00     0.235 C 
BRANCH  19  22
HETATM   22  C   UNL     1      -3.688  -6.482   2.217  1.00  0.00    -0.018 A 
HETATM   23  C   UNL     1      -3.909  -5.932   3.505  1.00  0.00     0.147 A 
HETATM   24  N   UNL     1      -2.970  -6.276   4.383  1.00  0.00    -0.187 NA
HETATM   25  N   UNL     1      -2.198  -7.140   3.712  1.00  0.00    -0.289 N 
HETATM   26  H   UNL     1      -1.431  -7.589   4.204  1.00  0.00     0.188 HD
HETATM   27  C   UNL     1      -2.577  -7.284   2.407  1.00  0.00     0.118 A 
ENDBRANCH  19  22
ENDBRANCH   1  15
TORSDOF 6
