REMARK  3 active torsions:
REMARK  status: ('A' for Active; 'I' for Inactive)
REMARK    1  A    between atoms: C_6  and  N_7 
REMARK       I    between atoms: N_7  and  C_8 
REMARK    2  A    between atoms: C_8  and  C_9 
REMARK    3  A    between atoms: C_9  and  C_10 
ROOT
HETATM    1  C   UNL     1       4.510  -2.301   0.058  1.00  0.00     0.286 C 
HETATM    2  N   UNL     1       4.274  -0.799  -0.166  1.00  0.00    -0.056 N 
HETATM    3  H   UNL     1       4.733  -0.276   0.605  1.00  0.00     0.278 HD
HETATM    4  H   UNL     1       4.734  -0.502  -1.036  1.00  0.00     0.278 HD
HETATM    5  C   UNL     1       2.830  -0.365  -0.147  1.00  0.00     0.209 C 
HETATM    6  C   UNL     1       1.997  -1.313  -1.031  1.00  0.00     0.115 C 
HETATM    7  N   UNL     1       2.116  -2.680  -0.553  1.00  0.00    -0.353 N 
HETATM    8  C   UNL     1       3.267  -3.212  -0.039  1.00  0.00     0.249 C 
HETATM    9  O   UNL     1       3.297  -4.386   0.320  1.00  0.00    -0.271 OA
HETATM   10  C   UNL     1       2.732   1.083  -0.612  1.00  0.00     0.035 C 
HETATM   11  C   UNL     1       1.272   1.534  -0.637  1.00  0.00     0.002 C 
HETATM   12  C   UNL     1       0.404   0.601  -1.481  1.00  0.00     0.002 C 
HETATM   13  C   UNL     1       0.535  -0.860  -1.051  1.00  0.00     0.027 C 
HETATM   14  H   UNL     1       1.350  -3.340  -0.678  1.00  0.00     0.163 HD
ENDROOT
BRANCH   1  15
HETATM   15  C   UNL     1       5.262  -2.563   1.368  1.00  0.00     0.146 C 
BRANCH  15  16
HETATM   16  C   UNL     1       4.490  -1.916   2.488  1.00  0.00     0.224 C 
HETATM   17  N   UNL     1       3.787  -2.792   3.278  1.00  0.00    -0.327 N 
HETATM   18  H   UNL     1       4.001  -3.781   3.188  1.00  0.00     0.169 HD
HETATM   19  O   UNL     1       4.469  -0.685   2.517  1.00  0.00    -0.273 OA
BRANCH  17  20
HETATM   20  C   UNL     1       2.805  -2.478   4.252  1.00  0.00     0.040 A 
HETATM   21  C   UNL     1       2.281  -3.517   5.051  1.00  0.00    -0.035 A 
HETATM   22  C   UNL     1       1.280  -3.224   5.999  1.00  0.00     0.015 A 
HETATM   23  C   UNL     1       2.760  -4.942   4.948  1.00  0.00     0.050 C 
HETATM   24  C   UNL     1       0.785  -1.927   6.157  1.00  0.00    -0.061 A 
HETATM   25  C   UNL     1      -0.256  -1.619   7.193  1.00  0.00     0.048 C 
HETATM   26  C   UNL     1       1.316  -0.906   5.370  1.00  0.00     0.009 A 
HETATM   27  C   UNL     1       2.313  -1.179   4.428  1.00  0.00     0.030 A 
ENDBRANCH  17  20
ENDBRANCH  15  16
ENDBRANCH   1  15
TORSDOF 3
