REMARK  5 active torsions:
REMARK  status: ('A' for Active; 'I' for Inactive)
REMARK    1  A    between atoms: C_6  and  O_7 
REMARK    2  A    between atoms: O_7  and  C_8 
REMARK    3  A    between atoms: C_8  and  C_9 
REMARK       I    between atoms: C_9  and  N_10 
REMARK    4  A    between atoms: N_10  and  N_11 
REMARK    5  A    between atoms: C_12  and  C_13 
ROOT
HETATM    1  C   UNL     1       8.910   0.845  -1.094  1.00  0.00     0.261 C 
HETATM    2  N   UNL     1       9.189  -0.512  -1.021  1.00  0.00    -0.246 N 
HETATM    3  O   UNL     1       9.677   1.709  -1.519  1.00  0.00    -0.269 OA
HETATM    4  H   UNL     1       8.502  -1.141  -0.616  1.00  0.00     0.192 HD
ENDROOT
BRANCH   2   5
HETATM    5  N   UNL     1      10.401  -0.976  -1.440  1.00  0.00    -0.184 NA
HETATM    6  C   UNL     1      10.551  -2.260  -1.459  1.00  0.00     0.152 C 
BRANCH   6   7
HETATM    7  C   UNL     1      11.813  -2.814  -1.904  1.00  0.00     0.011 A 
HETATM    8  C   UNL     1      12.131  -4.189  -2.155  1.00  0.00     0.004 A 
HETATM    9  C   UNL     1      13.461  -4.239  -2.579  1.00  0.00     0.043 A 
HETATM   10  C   UNL     1      11.410  -5.400  -2.076  1.00  0.00     0.014 A 
HETATM   11  C   UNL     1      14.105  -5.433  -2.924  1.00  0.00     0.030 A 
HETATM   12  N   UNL     1      13.937  -2.949  -2.580  1.00  0.00    -0.364 N 
HETATM   13  C   UNL     1      13.367  -6.616  -2.838  1.00  0.00     0.002 A 
HETATM   14  C   UNL     1      12.039  -6.603  -2.421  1.00  0.00     0.001 A 
HETATM   15  H   UNL     1      14.874  -2.681  -2.847  1.00  0.00     0.165 HD
HETATM   16  C   UNL     1      12.955  -2.085  -2.183  1.00  0.00     0.102 A 
ENDBRANCH   6   7
ENDBRANCH   2   5
BRANCH   1  17
HETATM   17  C   UNL     1       7.479   1.185  -0.691  1.00  0.00     0.280 C 
BRANCH  17  18
HETATM   18  O   UNL     1       7.013   0.325   0.349  1.00  0.00    -0.342 OA
BRANCH  18  19
HETATM   19  C   UNL     1       5.863   0.766   0.950  1.00  0.00     0.069 A 
HETATM   20  C   UNL     1       4.787   1.331   0.262  1.00  0.00     0.044 A 
HETATM   21  C   UNL     1       3.631   1.746   0.947  1.00  0.00    -0.053 A 
HETATM   22  C   UNL     1       3.568   1.602   2.347  1.00  0.00    -0.056 A 
HETATM   23  C   UNL     1       2.500   2.361   0.168  1.00  0.00     0.049 C 
HETATM   24  C   UNL     1       2.360   2.038   3.131  1.00  0.00     0.049 C 
HETATM   25  C   UNL     1       4.643   1.002   3.022  1.00  0.00     0.010 A 
HETATM   26  C   UNL     1       5.778   0.581   2.326  1.00  0.00     0.037 A 
ENDBRANCH  18  19
ENDBRANCH  17  18
ENDBRANCH   1  17
TORSDOF 5
