REMARK  5 active torsions:
REMARK  status: ('A' for Active; 'I' for Inactive)
REMARK    1  A    between atoms: C_9  and  C_10 
REMARK       I    between atoms: C_10  and  N_11 
REMARK    2  A    between atoms: N_11  and  C_12 
REMARK    3  A    between atoms: C_15  and  C_16 
REMARK    4  A    between atoms: C_16  and  C_17 
REMARK       I    between atoms: C_17  and  N_18 
REMARK    5  A    between atoms: N_18  and  C_19 
ROOT
HETATM    1  C   UNL     1       6.177   5.661  -0.818  1.00  0.00     0.277 C 
HETATM    2  N   UNL     1       6.823   4.703  -0.057  1.00  0.00    -0.322 N 
HETATM    3  O   UNL     1       6.709   6.494  -1.543  1.00  0.00    -0.266 OA
HETATM    4  H   UNL     1       6.179   4.132   0.487  1.00  0.00     0.169 HD
ENDROOT
BRANCH   2   5
HETATM    5  C   UNL     1       8.170   4.311  -0.105  1.00  0.00     0.035 A 
HETATM    6  C   UNL     1       9.137   4.931  -0.897  1.00  0.00     0.030 A 
HETATM    7  C   UNL     1      10.424   4.386  -1.003  1.00  0.00     0.010 A 
HETATM    8  C   UNL     1      10.761   3.213  -0.317  1.00  0.00    -0.049 A 
HETATM    9  C   UNL     1       9.810   2.633   0.531  1.00  0.00     0.010 A 
HETATM   10  C   UNL     1       8.528   3.180   0.637  1.00  0.00     0.030 A 
BRANCH   8  11
HETATM   11  C   UNL     1      12.094   2.540  -0.544  1.00  0.00     0.141 C 
BRANCH  11  12
HETATM   12  C   UNL     1      13.328   3.201   0.040  1.00  0.00     0.222 C 
HETATM   13  N   UNL     1      13.145   3.959   1.174  1.00  0.00    -0.357 N 
HETATM   14  H   UNL     1      12.199   4.120   1.497  1.00  0.00     0.162 HD
HETATM   15  O   UNL     1      14.437   2.977  -0.444  1.00  0.00    -0.273 OA
BRANCH  13  16
HETATM   16  C   UNL     1      14.231   4.554   1.945  1.00  0.00     0.076 C 
HETATM   17  C   UNL     1      15.112   3.490   2.598  1.00  0.00     0.032 C 
HETATM   18  C   UNL     1      15.060   5.547   1.134  1.00  0.00     0.032 C 
ENDBRANCH  13  16
ENDBRANCH  11  12
ENDBRANCH   8  11
ENDBRANCH   2   5
BRANCH   1  19
HETATM   19  C   UNL     1       4.709   5.540  -0.699  1.00  0.00     0.157 A 
HETATM   20  C   UNL     1       3.715   6.240  -1.445  1.00  0.00     0.029 A 
HETATM   21  C   UNL     1       3.705   7.236  -2.443  1.00  0.00     0.023 A 
HETATM   22  C   UNL     1       2.504   5.708  -1.021  1.00  0.00     0.063 A 
HETATM   23  C   UNL     1       2.480   7.661  -2.986  1.00  0.00    -0.061 A 
HETATM   24  C   UNL     1       2.445   8.717  -4.052  1.00  0.00     0.048 C 
HETATM   25  C   UNL     1       1.283   7.093  -2.532  1.00  0.00     0.009 A 
HETATM   26  C   UNL     1       1.269   6.107  -1.539  1.00  0.00     0.032 A 
HETATM   27  N   UNL     1       2.829   4.782  -0.070  1.00  0.00    -0.277 N 
HETATM   28  H   UNL     1       2.190   4.197   0.457  1.00  0.00     0.189 HD
HETATM   29  N   UNL     1       4.150   4.645   0.149  1.00  0.00    -0.168 NA
ENDBRANCH   1  19
TORSDOF 5
