REMARK  6 active torsions:
REMARK  status: ('A' for Active; 'I' for Inactive)
REMARK    1  A    between atoms: O_2  and  C_3 
REMARK    2  A    between atoms: C_6  and  C_7 
REMARK    3  A    between atoms: C_7  and  N_8 
REMARK       I    between atoms: N_8  and  C_9 
REMARK    4  A    between atoms: C_9  and  C_10 
REMARK    5  A    between atoms: C_10  and  S_11 
REMARK    6  A    between atoms: S_11  and  C_12 
ROOT
HETATM    1  C   UNL     1       5.760   0.842  -8.479  1.00  0.00     0.198 A 
HETATM    2  N   UNL     1       5.436   2.190  -8.444  1.00  0.00    -0.257 N 
HETATM    3  C   UNL     1       5.766   2.609  -9.734  1.00  0.00     0.173 A 
HETATM    4  C   UNL     1       5.566   4.022 -10.138  1.00  0.00     0.053 A 
HETATM    5  C   UNL     1       5.061   4.851  -9.160  1.00  0.00     0.090 A 
HETATM    6  S   UNL     1       4.889   6.446  -9.725  1.00  0.00    -0.075 SA
HETATM    7  C   UNL     1       5.488   6.019 -11.267  1.00  0.00    -0.008 A 
HETATM    8  C   UNL     1       5.807   4.675 -11.373  1.00  0.00    -0.028 A 
HETATM    9  C   UNL     1       6.353   4.079 -12.634  1.00  0.00     0.041 C 
HETATM   10  C   UNL     1       6.135   5.007 -13.841  1.00  0.00     0.005 C 
HETATM   11  C   UNL     1       6.483   6.465 -13.509  1.00  0.00     0.005 C 
HETATM   12  C   UNL     1       5.603   7.018 -12.377  1.00  0.00     0.047 C 
HETATM   13  N   UNL     1       4.748   4.429  -7.905  1.00  0.00    -0.336 N 
HETATM   14  C   UNL     1       4.904   3.100  -7.470  1.00  0.00     0.106 A 
HETATM   15  C   UNL     1       4.557   2.783  -6.211  1.00  0.00     0.064 C 
HETATM   16  N   UNL     1       6.245   1.625 -10.454  1.00  0.00    -0.128 NA
HETATM   17  N   UNL     1       6.244   0.511  -9.660  1.00  0.00    -0.122 NA
HETATM   18  H   UNL     1       4.374   5.092  -7.232  1.00  0.00     0.168 HD
ENDROOT
BRANCH   1  19
HETATM   19  S   UNL     1       5.576  -0.290  -7.179  1.00  0.00    -0.080 SA
BRANCH  19  20
HETATM   20  C   UNL     1       6.114  -1.820  -8.003  1.00  0.00     0.185 C 
BRANCH  20  21
HETATM   21  C   UNL     1       5.977  -3.007  -7.067  1.00  0.00     0.227 C 
HETATM   22  N   UNL     1       6.691  -2.909  -5.891  1.00  0.00    -0.356 N 
HETATM   23  H   UNL     1       6.954  -1.982  -5.580  1.00  0.00     0.162 HD
HETATM   24  O   UNL     1       5.333  -4.009  -7.371  1.00  0.00    -0.273 OA
BRANCH  22  25
HETATM   25  C   UNL     1       6.596  -3.952  -4.895  1.00  0.00     0.161 C 
BRANCH  25  26
HETATM   26  C   UNL     1       7.639  -3.811  -3.817  1.00  0.00    -0.040 A 
HETATM   27  C   UNL     1       7.290  -3.987  -2.472  1.00  0.00     0.011 A 
HETATM   28  C   UNL     1       8.263  -3.915  -1.472  1.00  0.00     0.037 A 
HETATM   29  C   UNL     1       9.601  -3.679  -1.793  1.00  0.00     0.068 A 
HETATM   30  C   UNL     1       9.957  -3.501  -3.129  1.00  0.00     0.037 A 
HETATM   31  C   UNL     1       8.985  -3.576  -4.133  1.00  0.00     0.011 A 
BRANCH  29  32
HETATM   32  O   UNL     1      10.450  -3.648  -0.722  1.00  0.00    -0.356 OA
HETATM   33  C   UNL     1      11.841  -3.581  -1.011  1.00  0.00     0.210 C 
ENDBRANCH  29  32
ENDBRANCH  25  26
ENDBRANCH  22  25
ENDBRANCH  20  21
ENDBRANCH  19  20
ENDBRANCH   1  19
TORSDOF 6
