REMARK  3 active torsions:
REMARK  status: ('A' for Active; 'I' for Inactive)
REMARK    1  A    between atoms: C_8  and  C_9 
REMARK    2  A    between atoms: C_12  and  C_13 
REMARK    3  A    between atoms: C_24  and  N_25 
ROOT
HETATM    1  C   UNL     1      -0.229   2.658  -0.853  1.00  0.00     0.073 C 
HETATM    2  C   UNL     1       0.803   1.596  -0.927  1.00  0.00     0.062 A 
HETATM    3  N   UNL     1       0.508   0.397  -1.457  1.00  0.00    -0.177 NA
HETATM    4  N   UNL     1       1.654  -0.307  -1.350  1.00  0.00    -0.256 N 
HETATM    5  H   UNL     1       1.679  -1.259  -1.698  1.00  0.00     0.191 HD
HETATM    6  C   UNL     1       2.657   0.408  -0.780  1.00  0.00     0.175 A 
HETATM    7  C   UNL     1       2.144   1.644  -0.481  1.00  0.00     0.034 A 
HETATM    8  C   UNL     1       3.007   2.675   0.165  1.00  0.00     0.104 A 
HETATM    9  C   UNL     1       4.448   2.178   0.227  1.00  0.00     0.067 A 
HETATM   10  C   UNL     1       5.515   3.219   0.524  1.00  0.00     0.020 C 
HETATM   11  N   UNL     1       6.401   4.083   0.770  1.00  0.00    -0.096 N 
HETATM   12  C   UNL     1       4.824   0.917  -0.122  1.00  0.00     0.139 A 
HETATM   13  O   UNL     1       3.892  -0.036  -0.576  1.00  0.00    -0.279 OA
ENDROOT
BRANCH   8  14
HETATM   14  C   UNL     1       2.389   2.924   1.534  1.00  0.00    -0.044 A 
HETATM   15  C   UNL     1       2.217   1.898   2.478  1.00  0.00     0.009 A 
HETATM   16  C   UNL     1       1.578   2.142   3.698  1.00  0.00     0.013 A 
HETATM   17  C   UNL     1       1.105   3.420   4.029  1.00  0.00    -0.026 A 
HETATM   18  C   UNL     1       1.320   4.453   3.102  1.00  0.00     0.013 A 
HETATM   19  C   UNL     1       1.951   4.212   1.875  1.00  0.00     0.009 A 
BRANCH  17  20
HETATM   20  C   UNL     1       0.384   3.660   5.294  1.00  0.00    -0.026 A 
HETATM   21  C   UNL     1       0.874   3.172   6.518  1.00  0.00     0.012 A 
HETATM   22  C   UNL     1       0.175   3.377   7.711  1.00  0.00     0.001 A 
HETATM   23  C   UNL     1      -1.027   4.079   7.704  1.00  0.00     0.000 A 
HETATM   24  C   UNL     1      -1.530   4.576   6.505  1.00  0.00     0.001 A 
HETATM   25  C   UNL     1      -0.831   4.367   5.313  1.00  0.00     0.012 A 
ENDBRANCH  17  20
ENDBRANCH   8  14
BRANCH  12  26
HETATM   26  N   UNL     1       6.113   0.436  -0.109  1.00  0.00    -0.282 NA
HETATM   27  H   UNL     1       6.748   0.896   0.539  1.00  0.00     0.126 HD
HETATM   28  H   UNL     1       6.143  -0.578  -0.042  1.00  0.00     0.126 HD
ENDBRANCH  12  26
TORSDOF 3
