REMARK  4 active torsions:
REMARK  status: ('A' for Active; 'I' for Inactive)
REMARK    1  A    between atoms: N_4  and  C_5 
REMARK    2  A    between atoms: C_16  and  N_17 
REMARK       I    between atoms: N_17  and  C_18 
REMARK    3  A    between atoms: C_18  and  C_19 
REMARK       I    between atoms: C_19  and  N_20 
REMARK    4  A    between atoms: N_20  and  C_21 
ROOT
HETATM    1  N   UNL     1       3.030  -1.771   0.041  1.00  0.00    -0.303 N 
HETATM    2  C   UNL     1       3.024  -3.135  -0.186  1.00  0.00     0.315 C 
HETATM    3  O   UNL     1       2.107  -3.817  -0.630  1.00  0.00    -0.262 OA
HETATM    4  H   UNL     1       3.943  -1.324   0.060  1.00  0.00     0.171 HD
ENDROOT
BRANCH   1   5
HETATM    5  C   UNL     1       1.878  -1.019  -0.088  1.00  0.00     0.152 C 
HETATM    6  N   UNL     1       0.594  -1.396   0.305  1.00  0.00    -0.045 N 
HETATM    7  N   UNL     1      -0.345  -0.509  -0.169  1.00  0.00    -0.156 NA
HETATM    8  C   UNL     1       0.376   0.518  -0.634  1.00  0.00     0.055 C 
HETATM    9  C   UNL     1      -0.298   1.723  -1.178  1.00  0.00     0.072 C 
HETATM   10  C   UNL     1       1.764   0.270  -0.558  1.00  0.00     0.079 C 
BRANCH   6  11
HETATM   11  C   UNL     1       0.181  -2.381   1.231  1.00  0.00     0.732 A 
HETATM   12  N   UNL     1       0.987  -3.095   1.952  1.00  0.00    -0.067 NA
HETATM   13  C   UNL     1       0.408  -3.985   2.827  1.00  0.00     0.065 A 
HETATM   14  C   UNL     1      -0.919  -4.110   3.012  1.00  0.00     0.036 A 
HETATM   15  C   UNL     1       1.387  -4.831   3.610  1.00  0.00     0.060 C 
HETATM   16  C   UNL     1      -1.557  -5.077   3.965  1.00  0.00     0.046 C 
HETATM   17  C   UNL     1      -1.814  -3.237   2.214  1.00  0.00     0.268 A 
HETATM   18  C   UNL     1      -0.582  -6.140   4.474  1.00  0.00     0.005 C 
HETATM   19  C   UNL     1       0.768  -5.526   4.824  1.00  0.00     0.006 C 
HETATM   20  O   UNL     1      -3.031  -3.235   2.365  1.00  0.00    -0.267 OA
HETATM   21  N   UNL     1      -1.184  -2.434   1.317  1.00  0.00    -0.152 N 
HETATM   22  H   UNL     1      -1.733  -1.787   0.761  1.00  0.00     0.188 HD
ENDBRANCH   6  11
ENDBRANCH   1   5
BRANCH   2  23
HETATM   23  C   UNL     1       4.388  -3.796   0.097  1.00  0.00     0.310 C 
HETATM   24  N   UNL     1       4.425  -5.127  -0.250  1.00  0.00    -0.348 N 
HETATM   25  H   UNL     1       3.531  -5.492  -0.575  1.00  0.00     0.163 HD
HETATM   26  O   UNL     1       5.287  -3.136   0.595  1.00  0.00    -0.262 OA
BRANCH  24  27
HETATM   27  C   UNL     1       5.455  -6.068   0.187  1.00  0.00     0.084 C 
HETATM   28  C   UNL     1       4.944  -7.503  -0.098  1.00  0.00     0.025 C 
HETATM   29  C   UNL     1       5.721  -8.601   0.642  1.00  0.00     0.002 C 
HETATM   30  C   UNL     1       6.554  -9.482  -0.298  1.00  0.00     0.000 C 
HETATM   31  C   UNL     1       7.668 -10.252   0.430  1.00  0.00     0.000 C 
HETATM   32  C   UNL     1       9.061  -9.651   0.184  1.00  0.00     0.000 C 
HETATM   33  C   UNL     1       9.246  -8.267   0.809  1.00  0.00     0.000 C 
HETATM   34  C   UNL     1      10.238  -7.409   0.025  1.00  0.00     0.000 C 
HETATM   35  C   UNL     1      10.298  -5.957   0.511  1.00  0.00     0.000 C 
HETATM   36  C   UNL     1       9.246  -5.016  -0.102  1.00  0.00     0.000 C 
HETATM   37  C   UNL     1       7.832  -5.133   0.487  1.00  0.00     0.002 C 
HETATM   38  C   UNL     1       6.825  -5.783  -0.479  1.00  0.00     0.025 C 
ENDBRANCH  24  27
ENDBRANCH   2  23
TORSDOF 4
