REMARK  5 active torsions:
REMARK  status: ('A' for Active; 'I' for Inactive)
REMARK    1  A    between atoms: C_2  and  N_3 
REMARK    2  A    between atoms: C_2  and  C_19 
REMARK       I    between atoms: N_3  and  C_4 
REMARK    3  A    between atoms: C_4  and  C_5 
REMARK    4  A    between atoms: C_7  and  O_8 
REMARK    5  A    between atoms: O_8  and  C_9 
ROOT
HETATM    1  C   UNL     1       1.887  -2.150  -1.709  1.00  0.00     0.146 A 
HETATM    2  O   UNL     1       2.034  -3.349  -2.358  1.00  0.00    -0.282 OA
HETATM    3  C   UNL     1       0.987  -4.144  -2.014  1.00  0.00     0.191 A 
HETATM    4  C   UNL     1       0.157  -3.477  -1.140  1.00  0.00     0.067 A 
HETATM    5  C   UNL     1       0.733  -2.196  -0.944  1.00  0.00     0.048 A 
ENDROOT
BRANCH   1   6
HETATM    6  C   UNL     1       2.905  -1.135  -1.926  1.00  0.00     0.276 C 
HETATM    7  N   UNL     1       2.714   0.042  -1.223  1.00  0.00    -0.347 N 
HETATM    8  H   UNL     1       1.839   0.186  -0.745  1.00  0.00     0.163 HD
HETATM    9  O   UNL     1       3.871  -1.287  -2.670  1.00  0.00    -0.265 OA
BRANCH   7  10
HETATM   10  C   UNL     1       3.571   1.198  -1.418  1.00  0.00     0.114 C 
HETATM   11  C   UNL     1       3.907   1.837  -0.069  1.00  0.00     0.037 C 
BRANCH  10  12
HETATM   12  C   UNL     1       2.914   2.162  -2.387  1.00  0.00    -0.033 A 
HETATM   13  C   UNL     1       3.348   2.208  -3.718  1.00  0.00     0.028 A 
HETATM   14  C   UNL     1       2.729   3.082  -4.597  1.00  0.00     0.116 A 
HETATM   15  N   UNL     1       1.712   3.899  -4.251  1.00  0.00    -0.273 NA
HETATM   16  C   UNL     1       1.292   3.831  -2.971  1.00  0.00     0.116 A 
HETATM   17  C   UNL     1       1.848   2.990  -2.018  1.00  0.00     0.028 A 
ENDBRANCH  10  12
ENDBRANCH   7  10
ENDBRANCH   1   6
BRANCH   3  18
HETATM   18  O   UNL     1       1.019  -5.347  -2.582  1.00  0.00    -0.286 OA
BRANCH  18  19
HETATM   19  C   UNL     1      -0.069  -6.175  -2.452  1.00  0.00     0.100 A 
HETATM   20  C   UNL     1       0.007  -7.324  -1.660  1.00  0.00     0.068 A 
HETATM   21 CL   UNL     1       1.431  -7.715  -0.769  1.00  0.00    -0.081 Cl
HETATM   22  C   UNL     1      -1.094  -8.180  -1.572  1.00  0.00     0.026 A 
HETATM   23  C   UNL     1      -2.262  -7.892  -2.282  1.00  0.00     0.002 A 
HETATM   24  C   UNL     1      -2.330  -6.753  -3.086  1.00  0.00     0.003 A 
HETATM   25  C   UNL     1      -1.231  -5.898  -3.178  1.00  0.00     0.039 A 
ENDBRANCH  18  19
ENDBRANCH   3  18
TORSDOF 5
