REMARK  6 active torsions:
REMARK  status: ('A' for Active; 'I' for Inactive)
REMARK    1  A    between atoms: O_2  and  C_3 
REMARK    2  A    between atoms: C_6  and  C_7 
REMARK    3  A    between atoms: C_13  and  C_14 
REMARK       I    between atoms: C_14  and  N_15 
REMARK    4  A    between atoms: N_15  and  C_16 
REMARK    5  A    between atoms: C_18  and  O_19 
REMARK    6  A    between atoms: C_24  and  C_25 
ROOT
HETATM    1  C   UNL     1       4.751   3.870  -3.901  1.00  0.00     0.118 C 
HETATM    2  N   UNL     1       4.163   3.387  -5.161  1.00  0.00    -0.365 N 
HETATM    3  C   UNL     1       3.988   4.282  -6.177  1.00  0.00     0.138 C 
HETATM    4  N   UNL     1       4.101   5.639  -5.953  1.00  0.00    -0.240 N 
HETATM    5  N   UNL     1       4.095   6.369  -7.077  1.00  0.00    -0.181 NA
HETATM    6  C   UNL     1       3.805   5.475  -8.023  1.00  0.00     0.160 C 
HETATM    7  C   UNL     1       3.693   4.153  -7.525  1.00  0.00     0.096 C 
HETATM    8  C   UNL     1       4.416   6.242  -4.671  1.00  0.00     0.221 C 
HETATM    9  C   UNL     1       4.161   5.237  -3.539  1.00  0.00     0.066 C 
HETATM   10  H   UNL     1       4.533   2.464  -5.398  1.00  0.00     0.161 HD
ENDROOT
BRANCH   7  11
HETATM   11  C   UNL     1       3.367   2.983  -8.325  1.00  0.00     0.261 C 
HETATM   12  N   UNL     1       3.000   1.875  -7.585  1.00  0.00    -0.323 N 
HETATM   13  H   UNL     1       2.966   2.009  -6.582  1.00  0.00     0.169 HD
HETATM   14  O   UNL     1       3.411   3.044  -9.549  1.00  0.00    -0.267 OA
BRANCH  12  15
HETATM   15  C   UNL     1       2.619   0.605  -8.069  1.00  0.00     0.037 A 
HETATM   16  C   UNL     1       2.458   0.303  -9.425  1.00  0.00     0.066 A 
HETATM   17  C   UNL     1       2.069  -0.979  -9.811  1.00  0.00     0.067 A 
HETATM   18  C   UNL     1       1.848  -1.975  -8.870  1.00  0.00     0.036 A 
HETATM   19  C   UNL     1       2.008  -1.685  -7.518  1.00  0.00     0.005 A 
HETATM   20  C   UNL     1       2.384  -0.398  -7.119  1.00  0.00     0.029 A 
BRANCH  17  21
HETATM   21  O   UNL     1       1.885  -1.296 -11.126  1.00  0.00    -0.361 OA
HETATM   22  H   UNL     1       2.045  -0.499 -11.659  1.00  0.00     0.217 HD
ENDBRANCH  17  21
ENDBRANCH  12  15
ENDBRANCH   7  11
BRANCH   1  23
HETATM   23  C   UNL     1       4.494   2.876  -2.785  1.00  0.00    -0.035 A 
HETATM   24  C   UNL     1       5.536   2.501  -1.923  1.00  0.00     0.012 A 
HETATM   25  C   UNL     1       5.298   1.660  -0.829  1.00  0.00     0.037 A 
HETATM   26  C   UNL     1       4.012   1.185  -0.576  1.00  0.00     0.068 A 
HETATM   27  C   UNL     1       2.975   1.531  -1.443  1.00  0.00     0.037 A 
HETATM   28  C   UNL     1       3.209   2.371  -2.535  1.00  0.00     0.012 A 
BRANCH  26  29
HETATM   29  O   UNL     1       3.645   0.383   0.469  1.00  0.00    -0.356 OA
HETATM   30  C   UNL     1       4.593   0.227   1.518  1.00  0.00     0.210 C 
ENDBRANCH  26  29
ENDBRANCH   1  23
BRANCH   8  31
HETATM   31  C   UNL     1       3.612   7.500  -4.421  1.00  0.00     0.409 C 
HETATM   32  F   UNL     1       2.279   7.279  -4.468  1.00  0.00    -0.169 F 
HETATM   33  F   UNL     1       3.883   7.967  -3.171  1.00  0.00    -0.169 F 
HETATM   34  F   UNL     1       3.908   8.508  -5.266  1.00  0.00    -0.169 F 
ENDBRANCH   8  31
TORSDOF 6
