REMARK  5 active torsions:
REMARK  status: ('A' for Active; 'I' for Inactive)
REMARK    1  A    between atoms: C_6  and  C_7 
REMARK    2  A    between atoms: C_7  and  N_8 
REMARK       I    between atoms: N_8  and  C_9 
REMARK       I    between atoms: C_9  and  N_10 
REMARK    3  A    between atoms: N_10  and  C_11 
REMARK    4  A    between atoms: C_13  and  C_14 
REMARK       I    between atoms: C_14  and  N_15 
REMARK    5  A    between atoms: N_15  and  C_16 
ROOT
HETATM    1  C   UNL     1       6.238  -0.759  -0.087  1.00  0.00     0.036 A 
HETATM    2  C   UNL     1       7.569  -0.695   0.331  1.00  0.00     0.052 A 
HETATM    3  C   UNL     1       8.214   0.543   0.456  1.00  0.00     0.046 A 
HETATM    4  C   UNL     1       9.581   0.602   0.882  1.00  0.00     0.099 C 
HETATM    5  N   UNL     1      10.688   0.672   1.225  1.00  0.00    -0.191 NA
HETATM    6  C   UNL     1       7.525   1.725   0.164  1.00  0.00     0.023 A 
HETATM    7  C   UNL     1       6.196   1.669  -0.249  1.00  0.00     0.004 A 
HETATM    8  C   UNL     1       5.558   0.433  -0.374  1.00  0.00     0.029 A 
ENDROOT
BRANCH   1   9
HETATM    9  N   UNL     1       5.514  -1.960  -0.242  1.00  0.00    -0.323 N 
HETATM   10  C   UNL     1       5.973  -3.252  -0.051  1.00  0.00     0.256 C 
HETATM   11  O   UNL     1       7.116  -3.583   0.242  1.00  0.00    -0.267 OA
HETATM   12  H   UNL     1       4.563  -1.853  -0.574  1.00  0.00     0.169 HD
BRANCH  10  13
HETATM   13  C   UNL     1       4.963  -4.327  -0.282  1.00  0.00     0.034 A 
HETATM   14  C   UNL     1       3.598  -4.123  -0.034  1.00  0.00     0.046 A 
HETATM   15  C   UNL     1       2.671  -5.129  -0.316  1.00  0.00     0.037 A 
HETATM   16  C   UNL     1       3.127  -6.364  -0.791  1.00  0.00     0.029 A 
HETATM   17  C   UNL     1       4.489  -6.587  -1.003  1.00  0.00     0.003 A 
HETATM   18  C   UNL     1       5.406  -5.568  -0.753  1.00  0.00     0.017 A 
BRANCH  15  19
HETATM   19  N   UNL     1       1.280  -4.976  -0.145  1.00  0.00    -0.309 N 
HETATM   20  C   UNL     1       0.595  -3.818   0.099  1.00  0.00     0.321 C 
HETATM   21  N   UNL     1      -0.750  -3.945   0.282  1.00  0.00    -0.337 N 
HETATM   22  O   UNL     1       1.075  -2.688   0.163  1.00  0.00    -0.247 OA
HETATM   23  H   UNL     1      -1.194  -3.060   0.487  1.00  0.00     0.164 HD
HETATM   24  H   UNL     1       0.715  -5.768  -0.437  1.00  0.00     0.170 HD
BRANCH  21  25
HETATM   25  C   UNL     1      -1.526  -5.153   0.474  1.00  0.00     0.186 C 
BRANCH  25  26
HETATM   26  C   UNL     1      -1.683  -5.860  -0.824  1.00  0.00     0.083 A 
HETATM   27  C   UNL     1      -2.681  -5.759  -1.772  1.00  0.00     0.076 A 
HETATM   28  C   UNL     1      -3.923  -4.977  -1.893  1.00  0.00     0.079 C 
HETATM   29  O   UNL     1      -2.361  -6.594  -2.806  1.00  0.00    -0.307 OA
HETATM   30  C   UNL     1      -1.177  -7.148  -2.431  1.00  0.00     0.258 A 
HETATM   31  N   UNL     1      -0.718  -6.749  -1.265  1.00  0.00    -0.237 NA
ENDBRANCH  25  26
ENDBRANCH  21  25
ENDBRANCH  15  19
ENDBRANCH  10  13
ENDBRANCH   1   9
TORSDOF 5
