REMARK  3 active torsions:
REMARK  status: ('A' for Active; 'I' for Inactive)
REMARK    1  A    between atoms: C_2  and  C_3 
REMARK    2  A    between atoms: C_7  and  N_8 
REMARK       I    between atoms: N_8  and  C_9 
REMARK    3  A    between atoms: C_9  and  C_10 
ROOT
HETATM    1  N   UNL     1       4.960  -0.747   1.468  1.00  0.00    -0.309 N 
HETATM    2  C   UNL     1       6.053   0.098   1.410  1.00  0.00     0.234 C 
HETATM    3  O   UNL     1       6.290   1.056   2.143  1.00  0.00    -0.272 OA
HETATM    4  H   UNL     1       4.885  -1.492   0.791  1.00  0.00     0.170 HD
ENDROOT
BRANCH   2   5
HETATM    5  C   UNL     1       7.030  -0.225   0.286  1.00  0.00     0.138 C 
HETATM    6  C   UNL     1       7.513  -1.632   0.281  1.00  0.00    -0.008 A 
HETATM    7  C   UNL     1       6.904  -2.320  -0.758  1.00  0.00     0.076 A 
HETATM    8  C   UNL     1       8.380  -2.273   1.150  1.00  0.00     0.030 A 
HETATM    9  C   UNL     1       7.121  -3.665  -0.970  1.00  0.00     0.039 A 
HETATM   10  O   UNL     1       6.041  -1.550  -1.493  1.00  0.00    -0.349 OA
HETATM   11  C   UNL     1       8.000  -4.328  -0.109  1.00  0.00     0.022 A 
HETATM   12  C   UNL     1       8.622  -3.633   0.941  1.00  0.00     0.011 A 
HETATM   13 BR   UNL     1       9.797  -4.557   2.100  1.00  0.00    -0.051 Br
HETATM   14  C   UNL     1       6.357  -0.189  -1.089  1.00  0.00     0.194 C 
ENDBRANCH   2   5
BRANCH   1  15
HETATM   15  C   UNL     1       3.957  -0.700   2.415  1.00  0.00     0.158 A 
HETATM   16  N   UNL     1       3.906   0.167   3.423  1.00  0.00    -0.156 NA
HETATM   17  N   UNL     1       2.806  -0.160   4.103  1.00  0.00    -0.280 N 
HETATM   18  C   UNL     1       2.125  -1.218   3.572  1.00  0.00     0.037 A 
HETATM   19  H   UNL     1       2.583   0.378   4.934  1.00  0.00     0.189 HD
HETATM   20  C   UNL     1       2.840  -1.591   2.445  1.00  0.00     0.010 A 
HETATM   21  C   UNL     1       2.520  -2.688   1.498  1.00  0.00     0.054 C 
BRANCH  18  22
HETATM   22  C   UNL     1       0.883  -1.746   4.200  1.00  0.00     0.055 C 
HETATM   23  C   UNL     1       1.193  -2.653   5.381  1.00  0.00     0.011 C 
ENDBRANCH  18  22
ENDBRANCH   1  15
TORSDOF 3
