REMARK  5 active torsions:
REMARK  status: ('A' for Active; 'I' for Inactive)
REMARK    1  A    between atoms: C_4  and  C_5 
REMARK    2  A    between atoms: C_5  and  C_6 
REMARK    3  A    between atoms: N_15  and  N_16 
REMARK       I    between atoms: N_16  and  C_17 
REMARK    4  A    between atoms: C_17  and  C_18 
REMARK    5  A    between atoms: C_18  and  C_19 
ROOT
HETATM    1  C   UNL     1       3.318   0.804  -0.146  1.00  0.00     0.173 A 
HETATM    2  N   UNL     1       4.324   1.604   0.540  1.00  0.00    -0.315 N 
HETATM    3  C   UNL     1       5.356   0.850   1.044  1.00  0.00     0.346 A 
HETATM    4  O   UNL     1       6.334   1.312   1.610  1.00  0.00    -0.245 OA
HETATM    5  N   UNL     1       5.111  -0.459   0.745  1.00  0.00    -0.167 N 
HETATM    6  C   UNL     1       3.987  -0.607  -0.035  1.00  0.00     0.285 A 
HETATM    7  O   UNL     1       3.594  -1.642  -0.563  1.00  0.00    -0.267 OA
HETATM    8  H   UNL     1       4.251   2.595   0.718  1.00  0.00     0.166 HD
ENDROOT
BRANCH   5   9
HETATM    9  N   UNL     1       6.026  -1.476   0.989  1.00  0.00    -0.256 N 
HETATM   10  C   UNL     1       5.612  -2.531   1.785  1.00  0.00     0.242 C 
HETATM   11  O   UNL     1       4.477  -2.652   2.241  1.00  0.00    -0.271 OA
HETATM   12  H   UNL     1       6.981  -1.150   1.141  1.00  0.00     0.191 HD
BRANCH  10  13
HETATM   13  C   UNL     1       6.655  -3.615   1.933  1.00  0.00     0.166 C 
BRANCH  13  14
HETATM   14  C   UNL     1       8.001  -3.176   2.470  1.00  0.00     0.074 A 
HETATM   15  N   UNL     1       8.104  -1.976   2.956  1.00  0.00    -0.175 NA
HETATM   16  N   UNL     1       9.301  -1.581   3.463  1.00  0.00    -0.243 N 
HETATM   17  C   UNL     1      10.444  -2.340   3.529  1.00  0.00     0.272 A 
HETATM   18  H   UNL     1       9.339  -0.648   3.868  1.00  0.00     0.192 HD
HETATM   19  O   UNL     1      11.483  -1.926   4.030  1.00  0.00    -0.266 OA
HETATM   20  C   UNL     1      10.355  -3.691   2.952  1.00  0.00     0.046 A 
HETATM   21  C   UNL     1       9.140  -4.127   2.425  1.00  0.00     0.006 A 
HETATM   22  C   UNL     1      11.481  -4.522   2.928  1.00  0.00     0.018 A 
HETATM   23  C   UNL     1       9.050  -5.409   1.870  1.00  0.00     0.014 A 
HETATM   24  C   UNL     1      10.178  -6.237   1.839  1.00  0.00     0.001 A 
HETATM   25  C   UNL     1      11.391  -5.795   2.366  1.00  0.00     0.001 A 
ENDBRANCH  13  14
ENDBRANCH  10  13
ENDBRANCH   5   9
BRANCH   1  26
HETATM   26  C   UNL     1       2.007   0.950   0.640  1.00  0.00    -0.016 A 
HETATM   27  C   UNL     1       1.581  -0.006   1.579  1.00  0.00     0.010 A 
HETATM   28  C   UNL     1       0.407   0.186   2.315  1.00  0.00     0.001 A 
HETATM   29  C   UNL     1      -0.359   1.335   2.133  1.00  0.00     0.000 A 
HETATM   30  C   UNL     1       0.049   2.299   1.218  1.00  0.00     0.001 A 
HETATM   31  C   UNL     1       1.223   2.113   0.485  1.00  0.00     0.010 A 
ENDBRANCH   1  26
BRANCH   1  32
HETATM   32  C   UNL     1       3.188   1.170  -1.635  1.00  0.00    -0.016 A 
HETATM   33  C   UNL     1       3.995   2.143  -2.253  1.00  0.00     0.010 A 
HETATM   34  C   UNL     1       3.856   2.430  -3.614  1.00  0.00     0.001 A 
HETATM   35  C   UNL     1       2.915   1.750  -4.383  1.00  0.00     0.000 A 
HETATM   36  C   UNL     1       2.110   0.781  -3.794  1.00  0.00     0.001 A 
HETATM   37  C   UNL     1       2.245   0.493  -2.435  1.00  0.00     0.010 A 
ENDBRANCH   1  32
TORSDOF 5
