REMARK  1 active torsions:
REMARK  status: ('A' for Active; 'I' for Inactive)
REMARK    1  A    between atoms: C_8  and  C_9 
ROOT
HETATM    1  C   UNL     1       1.213  -0.473  -0.109  1.00  0.00     0.073 C 
HETATM    2  C   UNL     1       2.677  -0.228  -0.064  1.00  0.00     0.062 C 
HETATM    3  N   UNL     1       3.495  -1.272   0.111  1.00  0.00    -0.178 NA
HETATM    4  N   UNL     1       4.717  -0.734   0.075  1.00  0.00    -0.262 N 
HETATM    5  H   UNL     1       5.513  -1.353   0.178  1.00  0.00     0.191 HD
HETATM    6  C   UNL     1       4.708   0.631   0.036  1.00  0.00     0.134 C 
HETATM    7  C   UNL     1       3.398   1.007  -0.198  1.00  0.00     0.032 C 
HETATM    8  C   UNL     1       2.830   2.343  -0.569  1.00  0.00     0.120 C 
HETATM    9  S   UNL     1       3.400   3.835   0.305  1.00  0.00    -0.141 SA
HETATM   10  C   UNL     1       4.754   3.271   1.373  1.00  0.00     0.136 C 
HETATM   11  C   UNL     1       4.296   2.510   2.613  1.00  0.00     0.031 C 
HETATM   12  C   UNL     1       5.929   2.637   0.633  1.00  0.00     0.236 C 
HETATM   13  O   UNL     1       7.005   3.234   0.518  1.00  0.00    -0.272 OA
HETATM   14  N   UNL     1       5.863   1.351   0.179  1.00  0.00    -0.311 N 
HETATM   15  H   UNL     1       6.762   0.935  -0.038  1.00  0.00     0.170 HD
ENDROOT
BRANCH   8  16
HETATM   16  C   UNL     1       2.995   2.458  -2.095  1.00  0.00    -0.029 A 
HETATM   17  C   UNL     1       1.921   2.205  -3.014  1.00  0.00    -0.018 A 
HETATM   18  C   UNL     1       2.188   2.267  -4.411  1.00  0.00    -0.025 A 
HETATM   19  C   UNL     1       0.587   1.897  -2.646  1.00  0.00     0.013 A 
HETATM   20  C   UNL     1       1.177   1.996  -5.348  1.00  0.00     0.012 A 
HETATM   21  C   UNL     1       3.463   2.605  -4.877  1.00  0.00     0.012 A 
HETATM   22  C   UNL     1      -0.112   1.669  -4.942  1.00  0.00     0.001 A 
HETATM   23  C   UNL     1      -0.409   1.627  -3.590  1.00  0.00     0.001 A 
HETATM   24  C   UNL     1       4.493   2.882  -3.991  1.00  0.00     0.002 A 
HETATM   25  C   UNL     1       4.263   2.804  -2.623  1.00  0.00     0.009 A 
ENDBRANCH   8  16
TORSDOF 1
