REMARK  9 active torsions:
REMARK  status: ('A' for Active; 'I' for Inactive)
REMARK    1  A    between atoms: C_2  and  C_3 
REMARK    2  A    between atoms: C_8  and  O_9 
REMARK    3  A    between atoms: C_10  and  C_11 
REMARK    4  A    between atoms: C_11  and  N_12 
REMARK       I    between atoms: N_12  and  C_13 
REMARK    5  A    between atoms: N_12  and  C_23 
REMARK       I    between atoms: C_13  and  N_14 
REMARK    6  A    between atoms: N_14  and  C_15 
REMARK    7  A    between atoms: C_23  and  C_24 
REMARK    8  A    between atoms: C_24  and  C_25 
REMARK    9  A    between atoms: C_25  and  N_26 
ROOT
HETATM    1  N   UNL     1       3.506  -7.366   4.368  1.00  0.00    -0.330 N 
HETATM    2  C   UNL     1       3.690  -6.734   5.590  1.00  0.00     0.323 C 
HETATM    3  N   UNL     1       4.500  -7.420   6.460  1.00  0.00    -0.309 N 
HETATM    4  O   UNL     1       2.998  -5.771   5.913  1.00  0.00    -0.247 OA
HETATM    5  H   UNL     1       4.956  -8.251   6.104  1.00  0.00     0.170 HD
ENDROOT
BRANCH   1   6
HETATM    6  C   UNL     1       3.030  -6.514   3.259  1.00  0.00     0.170 C 
BRANCH   6   7
HETATM    7  C   UNL     1       3.856  -5.287   2.999  1.00  0.00     0.013 A 
HETATM    8  C   UNL     1       3.256  -4.085   2.669  1.00  0.00     0.170 A 
HETATM    9  N   UNL     1       3.885  -2.930   2.416  1.00  0.00    -0.224 NA
HETATM   10  C   UNL     1       5.227  -2.934   2.488  1.00  0.00     0.070 A 
HETATM   11  C   UNL     1       5.964  -4.100   2.790  1.00  0.00    -0.006 A 
HETATM   12  C   UNL     1       5.924  -1.758   2.258  1.00  0.00     0.033 A 
HETATM   13  C   UNL     1       7.368  -4.052   2.853  1.00  0.00     0.021 A 
HETATM   14  C   UNL     1       5.252  -5.287   3.029  1.00  0.00     0.027 A 
HETATM   15  C   UNL     1       8.054  -2.851   2.634  1.00  0.00    -0.058 A 
HETATM   16  C   UNL     1       7.319  -1.704   2.327  1.00  0.00     0.009 A 
BRANCH   8  17
HETATM   17  O   UNL     1       1.906  -3.975   2.566  1.00  0.00    -0.344 OA
HETATM   18  H   UNL     1       1.849  -3.035   2.307  1.00  0.00     0.219 HD
ENDBRANCH   8  17
BRANCH  15  19
HETATM   19  C   UNL     1       9.559  -2.798   2.703  1.00  0.00     0.034 C 
HETATM   20  C   UNL     1      10.197  -2.962   1.332  1.00  0.00     0.010 C 
ENDBRANCH  15  19
ENDBRANCH   6   7
ENDBRANCH   1   6
BRANCH   1  21
HETATM   21  C   UNL     1       2.945  -8.720   4.390  1.00  0.00     0.129 C 
BRANCH  21  22
HETATM   22  C   UNL     1       1.434  -8.791   4.696  1.00  0.00     0.048 C 
BRANCH  22  23
HETATM   23  C   UNL     1       1.033  -8.857   6.175  1.00  0.00     0.236 C 
BRANCH  23  24
HETATM   24  N   UNL     1       0.997  -7.544   6.911  1.00  0.00    -0.067 N 
HETATM   25  H   UNL     1       1.900  -7.053   6.829  1.00  0.00     0.280 HD
HETATM   26  C   UNL     1      -0.019  -6.528   6.391  1.00  0.00     0.261 C 
HETATM   27  C   UNL     1       0.025  -5.258   7.253  1.00  0.00     0.195 C 
HETATM   28  O   UNL     1      -0.228  -5.566   8.630  1.00  0.00    -0.388 OA
HETATM   29  C   UNL     1       0.778  -6.436   9.156  1.00  0.00     0.195 C 
HETATM   30  C   UNL     1       0.782  -7.771   8.409  1.00  0.00     0.261 C 
ENDBRANCH  23  24
ENDBRANCH  22  23
ENDBRANCH  21  22
ENDBRANCH   1  21
BRANCH   3  31
HETATM   31  C   UNL     1       4.849  -7.014   7.765  1.00  0.00     0.037 A 
HETATM   32  C   UNL     1       5.377  -7.980   8.627  1.00  0.00     0.053 A 
HETATM   33  C   UNL     1       5.710  -7.636   9.939  1.00  0.00     0.036 A 
HETATM   34 CL   UNL     1       6.290  -8.849  11.012  1.00  0.00    -0.084 Cl
HETATM   35  C   UNL     1       5.561  -6.328  10.393  1.00  0.00     0.024 A 
HETATM   36  C   UNL     1       5.067  -5.355   9.527  1.00  0.00     0.004 A 
HETATM   37  C   UNL     1       4.704  -5.700   8.222  1.00  0.00     0.029 A 
ENDBRANCH   3  31
TORSDOF 9
