REMARK  6 active torsions:
REMARK  status: ('A' for Active; 'I' for Inactive)
REMARK    1  A    between atoms: C_2  and  C_3 
REMARK    2  A    between atoms: C_3  and  C_4 
REMARK    3  A    between atoms: C_6  and  N_7 
REMARK    4  A    between atoms: C_9  and  C_10 
REMARK    5  A    between atoms: C_16  and  N_17 
REMARK       I    between atoms: N_17  and  C_18 
REMARK    6  A    between atoms: C_18  and  C_19 
ROOT
HETATM    1  N   UNL     1       7.213  -3.537  -0.686  1.00  0.00    -0.044 N 
HETATM    2  N   UNL     1       8.563  -3.397  -0.586  1.00  0.00    -0.150 NA
HETATM    3  C   UNL     1       9.036  -4.633  -0.801  1.00  0.00     0.099 A 
HETATM    4  C   UNL     1       7.994  -5.561  -1.042  1.00  0.00     0.086 A 
HETATM    5  C   UNL     1       6.827  -4.840  -0.945  1.00  0.00     0.152 A 
ENDROOT
BRANCH   5   6
HETATM    6  N   UNL     1       5.512  -5.284  -1.050  1.00  0.00    -0.305 N 
HETATM    7  C   UNL     1       5.127  -6.595  -1.479  1.00  0.00     0.281 C 
HETATM    8  O   UNL     1       5.950  -7.374  -1.935  1.00  0.00    -0.265 OA
HETATM    9  H   UNL     1       4.768  -4.619  -0.822  1.00  0.00     0.170 HD
BRANCH   7  10
HETATM   10  C   UNL     1       3.719  -6.854  -1.327  1.00  0.00     0.144 A 
HETATM   11  O   UNL     1       2.950  -5.963  -0.623  1.00  0.00    -0.304 OA
HETATM   12  C   UNL     1       1.690  -6.482  -0.568  1.00  0.00     0.086 A 
HETATM   13  C   UNL     1       1.629  -7.683  -1.265  1.00  0.00     0.001 A 
HETATM   14  C   UNL     1       0.608  -5.911   0.096  1.00  0.00     0.038 A 
HETATM   15  C   UNL     1       2.941  -7.915  -1.750  1.00  0.00     0.057 A 
HETATM   16  C   UNL     1       0.402  -8.365  -1.326  1.00  0.00     0.014 A 
HETATM   17  C   UNL     1      -0.708  -7.811  -0.672  1.00  0.00     0.001 A 
HETATM   18  C   UNL     1      -0.603  -6.608   0.029  1.00  0.00     0.003 A 
ENDBRANCH   7  10
ENDBRANCH   5   6
BRANCH   1  19
HETATM   19  C   UNL     1       6.373  -2.421  -0.554  1.00  0.00     0.732 A 
HETATM   20  N   UNL     1       5.082  -2.507  -0.652  1.00  0.00    -0.067 NA
HETATM   21  C   UNL     1       4.396  -1.314  -0.528  1.00  0.00     0.059 A 
HETATM   22  C   UNL     1       4.991  -0.128  -0.318  1.00  0.00     0.102 A 
HETATM   23  C   UNL     1       6.457  -0.075  -0.197  1.00  0.00     0.261 A 
HETATM   24  N   UNL     1       7.080  -1.274  -0.329  1.00  0.00    -0.152 N 
HETATM   25  O   UNL     1       7.049   0.977  -0.002  1.00  0.00    -0.268 OA
HETATM   26  H   UNL     1       8.094  -1.303  -0.269  1.00  0.00     0.187 HD
BRANCH  21  27
HETATM   27  C   UNL     1       2.894  -1.395  -0.688  1.00  0.00     0.060 C 
BRANCH  27  28
HETATM   28  C   UNL     1       2.221  -2.012   0.539  1.00  0.00     0.002 C 
HETATM   29  C   UNL     1       0.707  -2.013   0.394  1.00  0.00     0.005 C 
ENDBRANCH  27  28
ENDBRANCH  21  27
ENDBRANCH   1  19
BRANCH   3  30
HETATM   30  C   UNL     1      10.505  -4.937  -0.764  1.00  0.00     0.035 A 
HETATM   31  S   UNL     1      11.172  -6.490  -1.019  1.00  0.00    -0.100 SA
HETATM   32  C   UNL     1      12.767  -5.914  -0.792  1.00  0.00     0.050 A 
HETATM   33  C   UNL     1      12.793  -4.563  -0.529  1.00  0.00     0.008 A 
HETATM   34  C   UNL     1      11.484  -3.997  -0.514  1.00  0.00     0.022 A 
ENDBRANCH   3  30
TORSDOF 6
