REMARK  11 active torsions:
REMARK  status: ('A' for Active; 'I' for Inactive)
REMARK    1  A    between atoms: C_2  and  O_3 
REMARK    2  A    between atoms: C_2  and  C_4 
REMARK    3  A    between atoms: C_8  and  C_9 
REMARK    4  A    between atoms: C_12  and  C_13 
REMARK    5  A    between atoms: C_13  and  C_14 
REMARK    6  A    between atoms: C_14  and  N_15 
REMARK    7  A    between atoms: C_14  and  C_29 
REMARK       I    between atoms: N_15  and  C_16 
REMARK    8  A    between atoms: C_16  and  C_17 
REMARK    9  A    between atoms: C_21  and  O_22 
REMARK   10  A    between atoms: O_22  and  C_23 
REMARK   11  A    between atoms: C_29  and  N_30 
ROOT
HETATM    1  C   UNL     1       3.221  10.064   3.910  1.00  0.00     0.114 C 
ENDROOT
BRANCH   1   2
HETATM    2  C   UNL     1       1.856   9.894   4.618  1.00  0.00     0.065 C 
BRANCH   2   3
HETATM    3  C   UNL     1       0.705  10.662   4.026  1.00  0.00    -0.056 A 
HETATM    4  C   UNL     1       0.158  10.310   2.787  1.00  0.00     0.008 A 
HETATM    5  C   UNL     1      -0.957  10.994   2.289  1.00  0.00     0.014 A 
HETATM    6  C   UNL     1      -1.552  12.034   3.017  1.00  0.00    -0.006 A 
HETATM    7  C   UNL     1      -0.981  12.399   4.242  1.00  0.00     0.014 A 
HETATM    8  C   UNL     1       0.132  11.719   4.744  1.00  0.00     0.008 A 
BRANCH   6   9
HETATM    9  C   UNL     1      -2.756  12.677   2.509  1.00  0.00     0.085 A 
HETATM   10  C   UNL     1      -3.591  13.515   3.218  1.00  0.00     0.130 A 
HETATM   11  N   UNL     1      -4.614  13.834   2.363  1.00  0.00    -0.315 N 
HETATM   12  C   UNL     1      -4.358  13.181   1.163  1.00  0.00     0.143 A 
HETATM   13  C   UNL     1      -5.725  14.637   2.589  1.00  0.00     0.098 A 
HETATM   14  C   UNL     1      -5.304  13.349   0.087  1.00  0.00     0.017 A 
HETATM   15  N   UNL     1      -3.239  12.482   1.234  1.00  0.00    -0.228 NA
HETATM   16  C   UNL     1      -6.377  14.146   0.324  1.00  0.00     0.015 A 
HETATM   17  C   UNL     1      -6.612  14.807   1.598  1.00  0.00     0.018 A 
BRANCH  14  18
HETATM   18  C   UNL     1      -5.098  12.679  -1.263  1.00  0.00     0.150 C 
HETATM   19  C   UNL     1      -5.494  11.206  -1.223  1.00  0.00     0.044 C 
BRANCH  18  20
HETATM   20  O   UNL     1      -5.869  13.328  -2.277  1.00  0.00    -0.391 OA
HETATM   21  H   UNL     1      -5.653  12.895  -3.120  1.00  0.00     0.210 HD
ENDBRANCH  18  20
ENDBRANCH  14  18
ENDBRANCH   6   9
ENDBRANCH   2   3
ENDBRANCH   1   2
BRANCH   1  22
HETATM   22  N   UNL     1       4.189   9.208   4.639  1.00  0.00    -0.350 N 
HETATM   23  C   UNL     1       5.552   9.169   4.453  1.00  0.00     0.252 C 
HETATM   24  O   UNL     1       6.124   9.931   3.680  1.00  0.00    -0.268 OA
HETATM   25  H   UNL     1       3.791   8.374   5.063  1.00  0.00     0.163 HD
BRANCH  23  26
HETATM   26  C   UNL     1       6.308   8.156   5.244  1.00  0.00     0.033 A 
HETATM   27  C   UNL     1       7.560   7.744   4.782  1.00  0.00     0.043 A 
HETATM   28  C   UNL     1       8.292   6.792   5.502  1.00  0.00     0.068 A 
HETATM   29 CL   UNL     1       9.829   6.317   4.869  1.00  0.00    -0.081 Cl
HETATM   30  C   UNL     1       7.787   6.236   6.689  1.00  0.00     0.091 A 
HETATM   31  C   UNL     1       6.550   6.680   7.162  1.00  0.00     0.039 A 
HETATM   32  C   UNL     1       5.816   7.636   6.448  1.00  0.00     0.020 A 
BRANCH  30  33
HETATM   33  O   UNL     1       8.570   5.309   7.320  1.00  0.00    -0.345 OA
BRANCH  33  34
HETATM   34  C   UNL     1       7.996   4.421   8.287  1.00  0.00     0.121 C 
HETATM   35  C   UNL     1       7.167   3.341   7.596  1.00  0.00     0.040 C 
HETATM   36  C   UNL     1       9.161   3.780   9.038  1.00  0.00     0.040 C 
ENDBRANCH  33  34
ENDBRANCH  30  33
ENDBRANCH  23  26
ENDBRANCH   1  22
BRANCH   1  37
HETATM   37  C   UNL     1       3.619  11.567   3.842  1.00  0.00     0.254 C 
BRANCH  37  38
HETATM   38  N   UNL     1       4.719  11.805   2.872  1.00  0.00    -0.077 N 
HETATM   39  H   UNL     1       5.523  11.181   3.102  1.00  0.00     0.274 HD
HETATM   40  H   UNL     1       4.461  11.580   1.905  1.00  0.00     0.274 HD
HETATM   41  H   UNL     1       5.079  12.764   2.904  1.00  0.00     0.274 HD
ENDBRANCH  37  38
ENDBRANCH   1  37
TORSDOF 11
