REMARK  4 active torsions:
REMARK  status: ('A' for Active; 'I' for Inactive)
REMARK    1  A    between atoms: C_5  and  C_6 
REMARK    2  A    between atoms: C_6  and  N_7 
REMARK    3  A    between atoms: N_13  and  C_15 
REMARK    4  A    between atoms: C_19  and  C_20 
ROOT
HETATM    1  N   UNL     1       4.986  -2.270  -0.228  1.00  0.00    -0.064 N 
HETATM    2  H   UNL     1       5.045  -2.651  -1.192  1.00  0.00     0.280 HD
HETATM    3  C   UNL     1       5.266  -3.433   0.674  1.00  0.00     0.236 C 
HETATM    4  C   UNL     1       5.010  -3.068   2.141  1.00  0.00     0.039 C 
HETATM    5  C   UNL     1       3.639  -2.393   2.442  1.00  0.00    -0.013 C 
HETATM    6  C   UNL     1       2.465  -3.409   2.425  1.00  0.00     0.245 C 
HETATM    7  N   UNL     1       2.474  -4.309   3.637  1.00  0.00    -0.065 N 
HETATM    8  H   UNL     1       3.344  -4.859   3.655  1.00  0.00     0.280 HD
HETATM    9  C   UNL     1       2.412  -3.531   4.949  1.00  0.00     0.244 C 
HETATM   10  C   UNL     1       3.632  -2.603   5.075  1.00  0.00     0.045 C 
HETATM   11  C   UNL     1       3.660  -1.680   3.830  1.00  0.00     0.022 C 
HETATM   12  C   UNL     1       3.390  -1.282   1.373  1.00  0.00     0.039 C 
HETATM   13  C   UNL     1       3.608  -1.720  -0.070  1.00  0.00     0.236 C 
ENDROOT
BRANCH   7  14
HETATM   14  C   UNL     1       1.340  -5.294   3.582  1.00  0.00     0.188 A 
HETATM   15  C   UNL     1       1.552  -6.534   2.761  1.00  0.00     0.035 A 
HETATM   16  C   UNL     1       1.548  -6.617   4.261  1.00  0.00     0.035 A 
ENDBRANCH   7  14
BRANCH  10  17
HETATM   17  C   UNL     1       4.972  -3.268   5.380  1.00  0.00    -0.052 A 
HETATM   18  C   UNL     1       5.116  -4.637   5.662  1.00  0.00     0.007 A 
HETATM   19  C   UNL     1       6.371  -5.191   5.937  1.00  0.00     0.001 A 
HETATM   20  C   UNL     1       7.503  -4.385   5.966  1.00  0.00     0.000 A 
HETATM   21  C   UNL     1       7.380  -3.020   5.743  1.00  0.00     0.001 A 
HETATM   22  C   UNL     1       6.128  -2.467   5.467  1.00  0.00     0.007 A 
ENDBRANCH  10  17
BRANCH   1  23
HETATM   23  C   UNL     1       6.103  -1.202  -0.257  1.00  0.00     0.323 C 
BRANCH  23  24
HETATM   24  C   UNL     1       7.225  -1.599  -1.140  1.00  0.00     0.198 A 
HETATM   25  O   UNL     1       8.394  -0.924  -1.012  1.00  0.00    -0.194 OA
HETATM   26  N   UNL     1       9.256  -1.465  -1.960  1.00  0.00    -0.112 NA
HETATM   27  C   UNL     1       8.516  -2.405  -2.564  1.00  0.00     0.152 A 
HETATM   28  C   UNL     1       9.025  -3.216  -3.688  1.00  0.00     0.096 C 
HETATM   29  N   UNL     1       7.237  -2.536  -2.063  1.00  0.00    -0.208 NA
ENDBRANCH  23  24
ENDBRANCH   1  23
TORSDOF 4
