REMARK  5 active torsions:
REMARK  status: ('A' for Active; 'I' for Inactive)
REMARK    1  A    between atoms: C_8  and  C_9 
REMARK       I    between atoms: N_10  and  C_11 
REMARK       I    between atoms: C_11  and  N_12 
REMARK    2  A    between atoms: N_12  and  C_13 
REMARK    3  A    between atoms: C_15  and  O_16 
REMARK    4  A    between atoms: O_16  and  C_17 
REMARK    5  A    between atoms: C_17  and  C_18 
ROOT
HETATM    1  C   UNL     1       2.939  -2.486   0.077  1.00  0.00     0.126 C 
HETATM    2  N   UNL     1       3.373  -3.877  -0.048  1.00  0.00    -0.325 N 
HETATM    3  C   UNL     1       4.311  -4.172  -0.983  1.00  0.00     0.323 C 
HETATM    4  N   UNL     1       4.638  -5.412  -1.393  1.00  0.00    -0.309 N 
HETATM    5  O   UNL     1       4.853  -3.268  -1.637  1.00  0.00    -0.247 OA
HETATM    6  C   UNL     1       2.795  -4.679   1.015  1.00  0.00     0.128 C 
HETATM    7  C   UNL     1       1.755  -3.799   1.698  1.00  0.00     0.022 C 
HETATM    8  C   UNL     1       2.275  -2.393   1.453  1.00  0.00     0.032 C 
HETATM    9  H   UNL     1       5.090  -5.295  -2.293  1.00  0.00     0.170 HD
ENDROOT
BRANCH   4  10
HETATM   10  C   UNL     1       4.493  -6.751  -1.011  1.00  0.00     0.039 A 
HETATM   11  C   UNL     1       4.409  -7.223   0.293  1.00  0.00     0.066 A 
HETATM   12  C   UNL     1       4.268  -8.594   0.562  1.00  0.00     0.071 A 
HETATM   13  C   UNL     1       4.289  -9.509  -0.490  1.00  0.00     0.037 A 
HETATM   14  C   UNL     1       4.442  -9.056  -1.797  1.00  0.00     0.005 A 
HETATM   15  C   UNL     1       4.547  -7.689  -2.052  1.00  0.00     0.030 A 
BRANCH  12  16
HETATM   16  O   UNL     1       4.125  -8.906   1.888  1.00  0.00    -0.347 OA
BRANCH  16  17
HETATM   17  C   UNL     1       3.889 -10.278   2.207  1.00  0.00     0.208 C 
BRANCH  17  18
HETATM   18  C   UNL     1       3.512 -10.375   3.665  1.00  0.00    -0.069 C 
HETATM   19  C   UNL     1       2.209  -9.732   4.050  1.00  0.00     0.044 C 
HETATM   20  C   UNL     1       4.273 -11.023   4.564  1.00  0.00     0.016 C 
ENDBRANCH  17  18
ENDBRANCH  16  17
ENDBRANCH  12  16
ENDBRANCH   4  10
BRANCH   1  21
HETATM   21  C   UNL     1       2.019  -2.085  -1.055  1.00  0.00     0.014 A 
HETATM   22  C   UNL     1       0.967  -2.751  -1.675  1.00  0.00     0.034 A 
HETATM   23  C   UNL     1       0.355  -4.090  -1.509  1.00  0.00     0.070 C 
HETATM   24  N   UNL     1       0.488  -1.893  -2.627  1.00  0.00    -0.282 N 
HETATM   25  H   UNL     1      -0.278  -2.045  -3.274  1.00  0.00     0.189 HD
HETATM   26  N   UNL     1       1.136  -0.727  -2.689  1.00  0.00    -0.179 NA
HETATM   27  C   UNL     1       2.092  -0.842  -1.763  1.00  0.00     0.061 A 
HETATM   28  C   UNL     1       3.074   0.258  -1.581  1.00  0.00     0.073 C 
ENDBRANCH   1  21
TORSDOF 5
