REMARK  6 active torsions:
REMARK  status: ('A' for Active; 'I' for Inactive)
REMARK    1  A    between atoms: O_2  and  C_3 
REMARK    2  A    between atoms: C_5  and  C_6 
REMARK    3  A    between atoms: C_6  and  C_7 
REMARK    4  A    between atoms: C_7  and  C_8 
REMARK       I    between atoms: C_8  and  N_9 
REMARK    5  A    between atoms: N_12  and  C_13 
REMARK    6  A    between atoms: C_17  and  C_18 
ROOT
HETATM    1  C   UNL     1       1.546   6.734   0.150  1.00  0.00     0.220 C 
HETATM    2  N   UNL     1       1.956   7.459  -0.965  1.00  0.00    -0.349 N 
HETATM    3  C   UNL     1       1.160   7.585  -2.196  1.00  0.00     0.145 C 
HETATM    4  C   UNL     1       0.305   8.868  -2.135  1.00  0.00     0.144 C 
HETATM    5  N   UNL     1       1.164  10.055  -1.896  1.00  0.00    -0.363 N 
HETATM    6  C   UNL     1       2.023   9.916  -0.686  1.00  0.00     0.144 C 
HETATM    7  C   UNL     1       2.845   8.608  -0.750  1.00  0.00     0.145 C 
HETATM    8  O   UNL     1       2.039   6.914   1.263  1.00  0.00    -0.273 OA
ENDROOT
BRANCH   5   9
HETATM    9  C   UNL     1       1.582  10.803  -2.961  1.00  0.00     0.122 A 
HETATM   10  N   UNL     1       2.262  11.984  -2.817  1.00  0.00    -0.262 N 
HETATM   11  H   UNL     1       2.520  12.443  -1.953  1.00  0.00     0.191 HD
HETATM   12  N   UNL     1       2.565  12.597  -3.972  1.00  0.00    -0.173 NA
HETATM   13  C   UNL     1       2.031  11.809  -4.918  1.00  0.00     0.090 A 
HETATM   14  C   UNL     1       1.402  10.680  -4.322  1.00  0.00     0.084 A 
BRANCH  13  15
HETATM   15  C   UNL     1       2.113  12.151  -6.342  1.00  0.00    -0.005 A 
HETATM   16  C   UNL     1       2.386  13.470  -6.740  1.00  0.00     0.015 A 
HETATM   17  C   UNL     1       2.447  13.814  -8.094  1.00  0.00     0.024 A 
HETATM   18  C   UNL     1       2.241  12.837  -9.063  1.00  0.00     0.034 A 
HETATM   19 CL   UNL     1       2.314  13.255 -10.730  1.00  0.00    -0.084 Cl
HETATM   20  C   UNL     1       1.976  11.521  -8.691  1.00  0.00     0.024 A 
HETATM   21  C   UNL     1       1.912  11.180  -7.335  1.00  0.00     0.015 A 
ENDBRANCH  13  15
ENDBRANCH   5   9
BRANCH   1  22
HETATM   22  C   UNL     1       0.450   5.707  -0.074  1.00  0.00     0.107 C 
BRANCH  22  23
HETATM   23  C   UNL     1       0.108   4.933   1.197  1.00  0.00     0.048 C 
BRANCH  23  24
HETATM   24  C   UNL     1      -1.071   4.018   0.961  1.00  0.00    -0.055 A 
HETATM   25  C   UNL     1      -2.382   4.512   1.078  1.00  0.00     0.044 A 
HETATM   26  C   UNL     1      -3.478   3.690   0.811  1.00  0.00     0.068 A 
HETATM   27  C   UNL     1      -3.260   2.365   0.431  1.00  0.00     0.037 A 
HETATM   28  C   UNL     1      -1.964   1.863   0.312  1.00  0.00     0.003 A 
HETATM   29  C   UNL     1      -0.871   2.688   0.572  1.00  0.00     0.007 A 
BRANCH  26  30
HETATM   30  O   UNL     1      -4.795   4.056   0.879  1.00  0.00    -0.356 OA
HETATM   31  C   UNL     1      -5.070   5.408   1.224  1.00  0.00     0.210 C 
ENDBRANCH  26  30
ENDBRANCH  23  24
ENDBRANCH  22  23
ENDBRANCH   1  22
TORSDOF 6
