REMARK  5 active torsions:
REMARK  status: ('A' for Active; 'I' for Inactive)
REMARK    1  A    between atoms: C_4  and  C_5 
REMARK    2  A    between atoms: C_5  and  N_6 
REMARK       I    between atoms: N_6  and  C_7 
REMARK    3  A    between atoms: C_7  and  C_8 
REMARK    4  A    between atoms: C_20  and  N_21 
REMARK       I    between atoms: N_21  and  C_22 
REMARK    5  A    between atoms: C_22  and  C_23 
ROOT
HETATM    1  C   UNL     1       5.590  -0.196  -1.068  1.00  0.00     0.079 A 
HETATM    2  C   UNL     1       6.923  -0.336  -1.140  1.00  0.00     0.131 A 
HETATM    3  N   UNL     1       7.745   0.787  -0.990  1.00  0.00    -0.259 N 
HETATM    4  C   UNL     1       9.078   0.365  -1.192  1.00  0.00     0.071 A 
HETATM    5  C   UNL     1       9.022  -1.020  -1.477  1.00  0.00     0.061 A 
HETATM    6  C   UNL     1      10.169  -1.747  -1.697  1.00  0.00     0.032 A 
HETATM    7  C   UNL     1      11.386  -1.056  -1.676  1.00  0.00     0.002 A 
HETATM    8  C   UNL     1      11.434   0.331  -1.419  1.00  0.00     0.002 A 
HETATM    9  C   UNL     1      10.267   1.061  -1.170  1.00  0.00     0.032 A 
HETATM   10  N   UNL     1       7.697  -1.468  -1.351  1.00  0.00    -0.339 N 
HETATM   11  C   UNL     1       7.300   2.063  -0.726  1.00  0.00     0.281 A 
HETATM   12  O   UNL     1       7.993   3.070  -0.573  1.00  0.00    -0.265 OA
HETATM   13  C   UNL     1       5.790   2.205  -0.629  1.00  0.00     0.105 A 
HETATM   14  C   UNL     1       5.024   1.121  -0.833  1.00  0.00     0.056 A 
HETATM   15  H   UNL     1       7.314  -2.219  -1.915  1.00  0.00     0.167 HD
ENDROOT
BRANCH   1  16
HETATM   16  C   UNL     1       4.729  -1.404  -1.216  1.00  0.00     0.255 C 
HETATM   17  N   UNL     1       3.687  -1.447  -0.325  1.00  0.00    -0.353 N 
HETATM   18  H   UNL     1       3.581  -0.720   0.371  1.00  0.00     0.163 HD
HETATM   19  O   UNL     1       4.965  -2.275  -2.046  1.00  0.00    -0.268 OA
BRANCH  17  20
HETATM   20  C   UNL     1       2.691  -2.490  -0.357  1.00  0.00     0.161 C 
BRANCH  20  21
HETATM   21  C   UNL     1       1.847  -2.446   0.889  1.00  0.00    -0.041 A 
HETATM   22  C   UNL     1       0.943  -1.392   1.100  1.00  0.00     0.009 A 
HETATM   23  C   UNL     1       0.198  -1.322   2.278  1.00  0.00     0.001 A 
HETATM   24  C   UNL     1       0.344  -2.306   3.254  1.00  0.00     0.000 A 
HETATM   25  C   UNL     1       1.236  -3.358   3.055  1.00  0.00     0.001 A 
HETATM   26  C   UNL     1       1.988  -3.426   1.880  1.00  0.00     0.009 A 
ENDBRANCH  20  21
ENDBRANCH  17  20
ENDBRANCH   1  16
BRANCH  13  27
HETATM   27  N   UNL     1       5.335   3.479  -0.332  1.00  0.00    -0.318 N 
HETATM   28  C   UNL     1       4.037   3.879  -0.086  1.00  0.00     0.256 C 
HETATM   29  O   UNL     1       3.054   3.144  -0.106  1.00  0.00    -0.267 OA
HETATM   30  H   UNL     1       6.093   4.144  -0.193  1.00  0.00     0.169 HD
BRANCH  28  31
HETATM   31  C   UNL     1       3.847   5.312   0.286  1.00  0.00     0.032 A 
HETATM   32  C   UNL     1       4.719   6.327  -0.135  1.00  0.00     0.020 A 
HETATM   33  C   UNL     1       4.490   7.649   0.259  1.00  0.00     0.043 A 
HETATM   34  C   UNL     1       3.392   7.953   1.058  1.00  0.00     0.116 A 
HETATM   35  F   UNL     1       3.179   9.221   1.432  1.00  0.00    -0.206 F 
HETATM   36  C   UNL     1       2.509   6.962   1.468  1.00  0.00     0.043 A 
HETATM   37  C   UNL     1       2.734   5.640   1.079  1.00  0.00     0.020 A 
ENDBRANCH  28  31
ENDBRANCH  13  27
TORSDOF 5
