REMARK  7 active torsions:
REMARK  status: ('A' for Active; 'I' for Inactive)
REMARK    1  A    between atoms: C_2  and  C_3 
REMARK       I    between atoms: C_3  and  N_4 
REMARK    2  A    between atoms: N_7  and  C_8 
REMARK    3  A    between atoms: C_9  and  N_10 
REMARK    4  A    between atoms: N_10  and  C_11 
REMARK    5  A    between atoms: C_11  and  N_12 
REMARK       I    between atoms: N_12  and  C_13 
REMARK    6  A    between atoms: C_13  and  C_14 
REMARK    7  A    between atoms: C_15  and  O_16 
ROOT
HETATM    1  C   UNL     1       0.620   5.431  -3.938  1.00  0.00     0.037 A 
HETATM    2  C   UNL     1      -0.353   5.240  -4.958  1.00  0.00     0.057 A 
HETATM    3  C   UNL     1      -0.754   6.303  -5.772  1.00  0.00     0.055 A 
HETATM    4  C   UNL     1      -0.162   7.552  -5.613  1.00  0.00     0.036 A 
HETATM    5 CL   UNL     1      -0.638   8.856  -6.630  1.00  0.00    -0.084 Cl
HETATM    6  C   UNL     1       0.804   7.759  -4.632  1.00  0.00     0.026 A 
HETATM    7  C   UNL     1       1.186   6.706  -3.795  1.00  0.00     0.027 A 
ENDROOT
BRANCH   2   8
HETATM    8  N   UNL     1      -0.948   3.959  -5.030  1.00  0.00    -0.331 N 
HETATM    9  H   UNL     1      -0.861   3.449  -4.153  1.00  0.00     0.168 HD
BRANCH   8  10
HETATM   10  C   UNL     1      -1.695   3.369  -5.987  1.00  0.00     0.179 C 
HETATM   11  S   UNL     1      -2.797   2.189  -5.549  1.00  0.00    -0.040 SA
BRANCH  10  12
HETATM   12  N   UNL     1      -1.550   3.660  -7.311  1.00  0.00    -0.299 N 
HETATM   13  C   UNL     1      -0.414   4.074  -8.002  1.00  0.00     0.260 C 
HETATM   14  O   UNL     1       0.709   4.225  -7.536  1.00  0.00    -0.267 OA
HETATM   15  H   UNL     1      -2.274   3.250  -7.892  1.00  0.00     0.171 HD
BRANCH  13  16
HETATM   16  C   UNL     1      -0.622   4.328  -9.450  1.00  0.00     0.066 A 
HETATM   17  C   UNL     1      -1.401   3.491 -10.263  1.00  0.00     0.089 A 
HETATM   18  C   UNL     1      -1.642   3.824 -11.606  1.00  0.00    -0.028 A 
HETATM   19  C   UNL     1      -2.495   2.962 -12.491  1.00  0.00     0.051 C 
HETATM   20  C   UNL     1      -1.023   4.966 -12.138  1.00  0.00     0.009 A 
HETATM   21  C   UNL     1      -0.211   5.777 -11.343  1.00  0.00     0.002 A 
HETATM   22  C   UNL     1      -0.011   5.461 -10.000  1.00  0.00     0.020 A 
BRANCH  17  23
HETATM   23  O   UNL     1      -1.987   2.362  -9.741  1.00  0.00    -0.354 OA
HETATM   24  C   UNL     1      -1.077   1.257  -9.818  1.00  0.00     0.210 C 
ENDBRANCH  17  23
ENDBRANCH  13  16
ENDBRANCH  10  12
ENDBRANCH   8  10
ENDBRANCH   2   8
BRANCH   1  25
HETATM   25  N   UNL     1       0.997   4.325  -3.137  1.00  0.00    -0.278 NA
HETATM   26  C   UNL     1       1.502   4.614  -1.777  1.00  0.00     0.115 C 
HETATM   27  C   UNL     1       1.622   3.305  -0.977  1.00  0.00     0.140 C 
HETATM   28  N   UNL     1       2.383   2.259  -1.679  1.00  0.00    -0.350 N 
HETATM   29  C   UNL     1       2.939   1.251  -0.895  1.00  0.00     0.219 C 
HETATM   30  C   UNL     1       2.047   2.084  -3.102  1.00  0.00     0.140 C 
HETATM   31  O   UNL     1       2.987   1.332   0.333  1.00  0.00    -0.273 OA
HETATM   32  C   UNL     1       1.922   3.417  -3.866  1.00  0.00     0.115 C 
BRANCH  29  33
HETATM   33  C   UNL     1       3.503   0.044  -1.631  1.00  0.00     0.098 C 
HETATM   34  C   UNL     1       4.089  -0.992  -0.685  1.00  0.00     0.014 C 
ENDBRANCH  29  33
ENDBRANCH   1  25
TORSDOF 7
