REMARK  6 active torsions:
REMARK  status: ('A' for Active; 'I' for Inactive)
REMARK    1  A    between atoms: C_2  and  C_3 
REMARK    2  A    between atoms: C_3  and  N_4 
REMARK    3  A    between atoms: C_3  and  C_11 
REMARK    4  A    between atoms: N_4  and  C_5 
REMARK       I    between atoms: C_11  and  N_12 
REMARK    5  A    between atoms: N_12  and  N_13 
REMARK    6  A    between atoms: C_14  and  C_15 
ROOT
HETATM    1  C   UNL     1       4.616  -0.081   1.577  1.00  0.00     0.260 C 
HETATM    2  N   UNL     1       4.985  -1.096   0.688  1.00  0.00    -0.246 N 
HETATM    3  O   UNL     1       5.404   0.599   2.231  1.00  0.00    -0.269 OA
HETATM    4  H   UNL     1       4.282  -1.415   0.025  1.00  0.00     0.192 HD
ENDROOT
BRANCH   2   5
HETATM    5  N   UNL     1       6.279  -1.380   0.326  1.00  0.00    -0.184 NA
HETATM    6  C   UNL     1       7.175  -1.345   1.262  1.00  0.00     0.152 C 
BRANCH   6   7
HETATM    7  C   UNL     1       8.566  -1.585   0.937  1.00  0.00     0.011 A 
HETATM    8  C   UNL     1       9.652  -1.725   1.861  1.00  0.00     0.004 A 
HETATM    9  C   UNL     1      10.812  -1.935   1.114  1.00  0.00     0.043 A 
HETATM   10  C   UNL     1       9.756  -1.699   3.269  1.00  0.00     0.014 A 
HETATM   11  C   UNL     1      12.070  -2.116   1.702  1.00  0.00     0.030 A 
HETATM   12  N   UNL     1      10.448  -1.917  -0.212  1.00  0.00    -0.364 N 
HETATM   13  C   UNL     1      12.144  -2.089   3.098  1.00  0.00     0.002 A 
HETATM   14  C   UNL     1      11.005  -1.884   3.872  1.00  0.00     0.001 A 
HETATM   15  H   UNL     1      11.090  -2.037  -0.984  1.00  0.00     0.165 HD
HETATM   16  C   UNL     1       9.101  -1.716  -0.331  1.00  0.00     0.102 A 
ENDBRANCH   6   7
ENDBRANCH   2   5
BRANCH   1  17
HETATM   17  C   UNL     1       3.075   0.078   1.651  1.00  0.00     0.175 C 
BRANCH  17  18
HETATM   18  C   UNL     1       2.664   1.187   2.631  1.00  0.00     0.030 C 
HETATM   19  C   UNL     1       2.878   2.578   2.045  1.00  0.00     0.007 C 
ENDBRANCH  17  18
BRANCH  17  20
HETATM   20  N   UNL     1       2.500  -1.207   2.074  1.00  0.00    -0.377 N 
HETATM   21  H   UNL     1       3.139  -1.867   2.508  1.00  0.00     0.160 HD
BRANCH  20  22
HETATM   22  C   UNL     1       1.245  -1.675   1.737  1.00  0.00     0.028 A 
HETATM   23  C   UNL     1       0.899  -2.988   2.090  1.00  0.00     0.029 A 
HETATM   24  C   UNL     1      -0.360  -3.517   1.793  1.00  0.00     0.002 A 
HETATM   25  C   UNL     1      -1.306  -2.733   1.143  1.00  0.00     0.000 A 
HETATM   26  C   UNL     1      -0.991  -1.424   0.796  1.00  0.00     0.002 A 
HETATM   27  C   UNL     1       0.274  -0.902   1.093  1.00  0.00     0.029 A 
ENDBRANCH  20  22
ENDBRANCH  17  20
ENDBRANCH   1  17
TORSDOF 6
