REMARK  3 active torsions:
REMARK  status: ('A' for Active; 'I' for Inactive)
REMARK    1  A    between atoms: C_10  and  C_11 
REMARK       I    between atoms: C_11  and  N_12 
REMARK    2  A    between atoms: N_12  and  C_13 
REMARK    3  A    between atoms: C_16  and  N_17 
ROOT
HETATM    1  C   UNL     1      -3.638  -3.943  -0.465  1.00  0.00     0.258 C 
HETATM    2  N   UNL     1      -3.523  -2.637  -0.043  1.00  0.00    -0.322 N 
HETATM    3  O   UNL     1      -4.678  -4.441  -0.888  1.00  0.00    -0.267 OA
HETATM    4  H   UNL     1      -2.637  -2.360   0.358  1.00  0.00     0.169 HD
ENDROOT
BRANCH   2   5
HETATM    5  C   UNL     1      -4.468  -1.603  -0.203  1.00  0.00     0.052 A 
HETATM    6  C   UNL     1      -5.704  -1.723  -0.819  1.00  0.00     0.148 A 
HETATM    7  N   UNL     1      -6.547  -0.680  -1.050  1.00  0.00    -0.247 NA
HETATM    8  C   UNL     1      -6.180   0.558  -0.658  1.00  0.00     0.105 A 
HETATM    9  C   UNL     1      -4.965   0.750  -0.001  1.00  0.00     0.047 A 
HETATM   10  C   UNL     1      -4.111  -0.332   0.232  1.00  0.00     0.034 A 
BRANCH   8  11
HETATM   11  N   UNL     1      -6.985   1.654  -1.001  1.00  0.00    -0.258 NA
HETATM   12  C   UNL     1      -7.291   2.579   0.115  1.00  0.00     0.199 C 
HETATM   13  C   UNL     1      -8.242   3.728  -0.275  1.00  0.00     0.231 C 
HETATM   14  O   UNL     1      -8.354   4.744   0.412  1.00  0.00    -0.272 OA
HETATM   15  N   UNL     1      -9.048   3.568  -1.375  1.00  0.00    -0.359 N 
HETATM   16  C   UNL     1      -8.754   2.582  -2.395  1.00  0.00     0.137 C 
HETATM   17  H   UNL     1      -9.591   4.387  -1.615  1.00  0.00     0.162 HD
HETATM   18  C   UNL     1      -8.158   1.296  -1.816  1.00  0.00     0.117 C 
ENDBRANCH   8  11
ENDBRANCH   2   5
BRANCH   1  19
HETATM   19  C   UNL     1      -2.402  -4.741  -0.403  1.00  0.00     0.063 A 
HETATM   20  C   UNL     1      -1.046  -4.414  -0.030  1.00  0.00     0.046 A 
HETATM   21  C   UNL     1      -0.370  -3.267   0.442  1.00  0.00     0.130 A 
HETATM   22  C   UNL     1      -0.267  -5.562  -0.232  1.00  0.00     0.046 A 
HETATM   23  C   UNL     1       1.005  -3.283   0.686  1.00  0.00     0.043 A 
HETATM   24  F   UNL     1      -1.038  -2.128   0.674  1.00  0.00    -0.205 F 
HETATM   25  C   UNL     1       1.740  -4.440   0.463  1.00  0.00     0.005 A 
HETATM   26  C   UNL     1       1.116  -5.602   0.001  1.00  0.00     0.030 A 
HETATM   27  N   UNL     1      -1.104  -6.552  -0.681  1.00  0.00    -0.364 N 
HETATM   28  H   UNL     1      -0.814  -7.493  -0.915  1.00  0.00     0.165 HD
HETATM   29  C   UNL     1      -2.378  -6.075  -0.786  1.00  0.00     0.106 A 
ENDBRANCH   1  19
TORSDOF 3
