REMARK  8 active torsions:
REMARK  status: ('A' for Active; 'I' for Inactive)
REMARK    1  A    between atoms: C_10  and  C_11 
REMARK    2  A    between atoms: C_11  and  C_12 
REMARK       I    between atoms: C_12  and  N_13 
REMARK    3  A    between atoms: N_13  and  N_14 
REMARK       I    between atoms: N_14  and  C_15 
REMARK    4  A    between atoms: C_15  and  C_16 
REMARK    5  A    between atoms: C_16  and  C_17 
REMARK    6  A    between atoms: C_17  and  C_18 
REMARK       I    between atoms: C_18  and  N_19 
REMARK    7  A    between atoms: N_19  and  C_20 
REMARK    8  A    between atoms: C_20  and  C_21 
ROOT
HETATM    1  C   UNL     1       4.156   4.255   0.098  1.00  0.00     0.240 C 
HETATM    2  N   UNL     1       3.052   3.716  -0.535  1.00  0.00    -0.267 N 
HETATM    3  O   UNL     1       5.283   4.199  -0.394  1.00  0.00    -0.272 OA
HETATM    4  H   UNL     1       2.093   3.893  -0.237  1.00  0.00     0.190 HD
ENDROOT
BRANCH   2   5
HETATM    5  N   UNL     1       3.235   3.130  -1.790  1.00  0.00    -0.268 N 
HETATM    6  C   UNL     1       2.172   2.477  -2.374  1.00  0.00     0.236 C 
HETATM    7  O   UNL     1       1.026   2.527  -1.930  1.00  0.00    -0.272 OA
HETATM    8  H   UNL     1       4.202   3.019  -2.097  1.00  0.00     0.190 HD
BRANCH   6   9
HETATM    9  C   UNL     1       2.558   1.715  -3.624  1.00  0.00     0.114 C 
BRANCH   9  10
HETATM   10  C   UNL     1       1.391   0.930  -4.205  1.00  0.00     0.112 C 
BRANCH  10  11
HETATM   11  C   UNL     1       0.531   1.819  -5.074  1.00  0.00     0.218 C 
HETATM   12  N   UNL     1      -0.403   2.551  -4.387  1.00  0.00    -0.355 N 
HETATM   13  H   UNL     1      -0.302   2.635  -3.375  1.00  0.00     0.162 HD
HETATM   14  O   UNL     1       0.691   1.889  -6.289  1.00  0.00    -0.274 OA
BRANCH  12  15
HETATM   15  C   UNL     1      -1.196   3.550  -5.063  1.00  0.00     0.187 C 
BRANCH  15  16
HETATM   16  C   UNL     1      -2.338   3.917  -4.196  1.00  0.00     0.070 A 
HETATM   17  O   UNL     1      -2.146   4.959  -3.336  1.00  0.00    -0.325 OA
HETATM   18  C   UNL     1      -3.303   5.118  -2.643  1.00  0.00     0.142 A 
HETATM   19  C   UNL     1      -4.236   4.191  -3.042  1.00  0.00     0.027 A 
HETATM   20  C   UNL     1      -3.614   3.412  -4.046  1.00  0.00     0.036 A 
ENDBRANCH  15  16
ENDBRANCH  12  15
ENDBRANCH  10  11
ENDBRANCH   9  10
ENDBRANCH   6   9
ENDBRANCH   2   5
BRANCH   1  21
HETATM   21  C   UNL     1       3.863   4.857   1.451  1.00  0.00     0.146 C 
BRANCH  21  22
HETATM   22  C   UNL     1       3.578   6.330   1.485  1.00  0.00    -0.015 A 
HETATM   23  C   UNL     1       3.317   7.257   0.413  1.00  0.00    -0.000 A 
HETATM   24  C   UNL     1       3.254   7.174  -0.998  1.00  0.00     0.021 A 
HETATM   25  C   UNL     1       3.074   8.503   0.992  1.00  0.00     0.043 A 
HETATM   26  C   UNL     1       2.956   8.311  -1.771  1.00  0.00    -0.061 A 
HETATM   27  C   UNL     1       2.860   8.208  -3.266  1.00  0.00     0.048 C 
HETATM   28  C   UNL     1       2.703   9.530  -1.140  1.00  0.00     0.009 A 
HETATM   29  C   UNL     1       2.765   9.649   0.249  1.00  0.00     0.031 A 
HETATM   30  N   UNL     1       3.200   8.357   2.350  1.00  0.00    -0.359 N 
HETATM   31  H   UNL     1       3.082   9.109   3.014  1.00  0.00     0.166 HD
HETATM   32  C   UNL     1       3.495   7.059   2.668  1.00  0.00     0.013 A 
HETATM   33  C   UNL     1       3.673   6.632   4.082  1.00  0.00     0.068 C 
ENDBRANCH  21  22
ENDBRANCH   1  21
TORSDOF 8
