REMARK  7 active torsions:
REMARK  status: ('A' for Active; 'I' for Inactive)
REMARK    1  A    between atoms: C_2  and  C_3 
REMARK    2  A    between atoms: C_6  and  C_7 
REMARK       I    between atoms: C_7  and  N_8 
REMARK    3  A    between atoms: N_8  and  C_9 
REMARK    4  A    between atoms: C_9  and  C_10 
REMARK    5  A    between atoms: N_19  and  C_20 
REMARK    6  A    between atoms: C_20  and  C_21 
REMARK    7  A    between atoms: C_21  and  C_22 
ROOT
HETATM    1  C   UNL     1       7.140  -4.651   0.692  1.00  0.00     0.249 A 
HETATM    2  C   UNL     1       7.415  -4.442   2.192  1.00  0.00     0.266 A 
HETATM    3  O   UNL     1       7.570  -5.302   3.045  1.00  0.00    -0.270 OA
HETATM    4  N   UNL     1       7.419  -3.073   2.436  1.00  0.00    -0.310 N 
HETATM    5  C   UNL     1       7.130  -2.375   1.311  1.00  0.00     0.129 A 
HETATM    6  C   UNL     1       6.953  -3.221   0.298  1.00  0.00     0.101 A 
HETATM    7  N   UNL     1       7.037  -1.017   1.182  1.00  0.00    -0.284 N 
HETATM    8  C   UNL     1       6.785  -0.448  -0.067  1.00  0.00     0.331 A 
HETATM    9  O   UNL     1       6.748   0.761  -0.282  1.00  0.00    -0.246 OA
HETATM   10  N   UNL     1       6.592  -1.338  -1.100  1.00  0.00    -0.275 N 
HETATM   11  C   UNL     1       6.661  -2.703  -1.026  1.00  0.00     0.262 A 
HETATM   12  O   UNL     1       6.519  -3.439  -1.992  1.00  0.00    -0.267 OA
HETATM   13  H   UNL     1       7.538  -2.693   3.364  1.00  0.00     0.170 HD
HETATM   14  H   UNL     1       6.401  -0.936  -2.005  1.00  0.00     0.173 HD
ENDROOT
BRANCH   1  15
HETATM   15  N   UNL     1       5.944  -5.496   0.492  1.00  0.00    -0.327 N 
HETATM   16  C   UNL     1       4.684  -5.131   0.908  1.00  0.00     0.253 C 
HETATM   17  O   UNL     1       4.431  -4.053   1.431  1.00  0.00    -0.268 OA
HETATM   18  H   UNL     1       6.116  -6.486   0.355  1.00  0.00     0.164 HD
BRANCH  16  19
HETATM   19  C   UNL     1       3.620  -6.154   0.738  1.00  0.00     0.032 A 
HETATM   20  C   UNL     1       2.586  -6.208   1.672  1.00  0.00     0.017 A 
HETATM   21  C   UNL     1       1.567  -7.158   1.539  1.00  0.00     0.009 A 
HETATM   22  C   UNL     1       1.537  -8.058   0.457  1.00  0.00    -0.051 A 
HETATM   23  C   UNL     1       2.596  -7.987  -0.468  1.00  0.00     0.009 A 
HETATM   24  C   UNL     1       3.622  -7.043  -0.338  1.00  0.00     0.017 A 
BRANCH  22  25
HETATM   25  C   UNL     1       0.412  -9.102   0.320  1.00  0.00    -0.024 C 
HETATM   26  C   UNL     1      -0.943  -8.575   0.846  1.00  0.00     0.019 C 
HETATM   27  C   UNL     1       0.807 -10.348   1.136  1.00  0.00     0.019 C 
HETATM   28  C   UNL     1       0.172  -9.533  -1.146  1.00  0.00     0.019 C 
ENDBRANCH  22  25
ENDBRANCH  16  19
ENDBRANCH   1  15
BRANCH   1  29
HETATM   29  C   UNL     1       8.431  -5.246   0.119  1.00  0.00     0.426 C 
HETATM   30  F   UNL     1       8.654  -6.495   0.597  1.00  0.00    -0.167 F 
HETATM   31  F   UNL     1       8.377  -5.366  -1.229  1.00  0.00    -0.167 F 
HETATM   32  F   UNL     1       9.521  -4.498   0.405  1.00  0.00    -0.167 F 
ENDBRANCH   1  29
BRANCH   7  33
HETATM   33  C   UNL     1       7.235  -0.128   2.327  1.00  0.00     0.140 C 
BRANCH  33  34
HETATM   34  C   UNL     1       8.719   0.143   2.597  1.00  0.00     0.059 C 
BRANCH  34  35
HETATM   35  C   UNL     1       8.922   1.047   3.787  1.00  0.00    -0.057 A 
HETATM   36  C   UNL     1       8.708   0.573   5.089  1.00  0.00     0.007 A 
HETATM   37  C   UNL     1       8.880   1.418   6.187  1.00  0.00     0.001 A 
HETATM   38  C   UNL     1       9.273   2.740   5.994  1.00  0.00     0.000 A 
HETATM   39  C   UNL     1       9.492   3.220   4.705  1.00  0.00     0.001 A 
HETATM   40  C   UNL     1       9.315   2.379   3.605  1.00  0.00     0.007 A 
ENDBRANCH  34  35
ENDBRANCH  33  34
ENDBRANCH   7  33
TORSDOF 7
