REMARK  7 active torsions:
REMARK  status: ('A' for Active; 'I' for Inactive)
REMARK    1  A    between atoms: O_2  and  C_3 
REMARK    2  A    between atoms: N_9  and  N_10 
REMARK       I    between atoms: N_10  and  C_11 
REMARK    3  A    between atoms: C_11  and  C_12 
REMARK    4  A    between atoms: C_12  and  C_13 
REMARK    5  A    between atoms: C_13  and  C_14 
REMARK    6  A    between atoms: C_14  and  N_15 
REMARK       I    between atoms: N_15  and  C_16 
REMARK    7  A    between atoms: C_16  and  C_17 
ROOT
HETATM    1  N   UNL     1       1.827   4.597  -0.709  1.00  0.00    -0.246 N 
HETATM    2  C   UNL     1       1.221   5.385   0.259  1.00  0.00     0.237 C 
HETATM    3  O   UNL     1       0.627   4.980   1.254  1.00  0.00    -0.272 OA
HETATM    4  H   UNL     1       2.473   5.024  -1.362  1.00  0.00     0.192 HD
ENDROOT
BRANCH   1   5
HETATM    5  N   UNL     1       1.861   3.246  -0.555  1.00  0.00    -0.166 NA
HETATM    6  C   UNL     1       2.145   2.495  -1.571  1.00  0.00     0.157 A 
HETATM    7  C   UNL     1       2.347   2.763  -3.003  1.00  0.00     0.029 A 
HETATM    8  C   UNL     1       2.317   0.969  -1.407  1.00  0.00     0.277 A 
HETATM    9  C   UNL     1       2.254   3.908  -3.772  1.00  0.00     0.053 A 
HETATM   10  C   UNL     1       2.638   1.531  -3.592  1.00  0.00     0.048 A 
HETATM   11  C   UNL     1       2.515   3.810  -5.146  1.00  0.00     0.069 A 
HETATM   12  C   UNL     1       2.821   2.565  -5.726  1.00  0.00     0.039 A 
HETATM   13  C   UNL     1       2.878   1.405  -4.945  1.00  0.00     0.033 A 
HETATM   14  N   UNL     1       2.623   0.499  -2.664  1.00  0.00    -0.321 N 
HETATM   15  H   UNL     1       2.784  -0.479  -2.851  1.00  0.00     0.169 HD
HETATM   16  O   UNL     1       2.218   0.329  -0.384  1.00  0.00    -0.266 OA
BRANCH  11  17
HETATM   17  O   UNL     1       2.424   4.999  -5.819  1.00  0.00    -0.356 OA
HETATM   18  C   UNL     1       2.906   5.020  -7.157  1.00  0.00     0.210 C 
ENDBRANCH  11  17
ENDBRANCH   1   5
BRANCH   2  19
HETATM   19  C   UNL     1       1.331   6.864  -0.038  1.00  0.00     0.106 C 
BRANCH  19  20
HETATM   20  C   UNL     1       2.620   7.450   0.523  1.00  0.00     0.029 C 
BRANCH  20  21
HETATM   21  C   UNL     1       2.683   8.951   0.254  1.00  0.00     0.123 C 
BRANCH  21  22
HETATM   22  N   UNL     1       3.859   9.562   0.832  1.00  0.00    -0.357 N 
HETATM   23  C   UNL     1       5.096   9.495   0.235  1.00  0.00     0.253 C 
HETATM   24  O   UNL     1       5.268   8.911  -0.833  1.00  0.00    -0.268 OA
HETATM   25  H   UNL     1       3.769   9.997   1.743  1.00  0.00     0.162 HD
BRANCH  23  26
HETATM   26  C   UNL     1       6.244  10.196   0.896  1.00  0.00     0.053 A 
HETATM   27  C   UNL     1       6.293  10.637   2.229  1.00  0.00     0.049 A 
HETATM   28 CL   UNL     1       5.030  10.394   3.386  1.00  0.00    -0.083 Cl
HETATM   29  C   UNL     1       7.432  11.304   2.708  1.00  0.00     0.025 A 
HETATM   30  C   UNL     1       8.529  11.531   1.878  1.00  0.00     0.002 A 
HETATM   31  C   UNL     1       8.499  11.088   0.562  1.00  0.00     0.001 A 
HETATM   32  C   UNL     1       7.368  10.427   0.077  1.00  0.00     0.019 A 
ENDBRANCH  23  26
ENDBRANCH  21  22
ENDBRANCH  20  21
ENDBRANCH  19  20
ENDBRANCH   2  19
TORSDOF 7
