REMARK  8 active torsions:
REMARK  status: ('A' for Active; 'I' for Inactive)
REMARK    1  A    between atoms: O_2  and  C_3 
REMARK    2  A    between atoms: C_7  and  C_8 
REMARK       I    between atoms: C_8  and  N_9 
REMARK    3  A    between atoms: N_9  and  C_10 
REMARK    4  A    between atoms: C_10  and  N_11 
REMARK    5  A    between atoms: N_11  and  C_12 
REMARK    6  A    between atoms: C_15  and  N_16 
REMARK    7  A    between atoms: N_19  and  C_21 
REMARK    8  A    between atoms: C_21  and  C_22 
ROOT
HETATM    1  C   UNL     1       2.688  -3.638   0.693  1.00  0.00     0.034 A 
HETATM    2  C   UNL     1       1.763  -2.724   1.195  1.00  0.00     0.032 A 
HETATM    3  C   UNL     1       2.168  -1.435   1.552  1.00  0.00     0.031 A 
HETATM    4  C   UNL     1       3.503  -1.022   1.419  1.00  0.00     0.030 A 
HETATM    5  C   UNL     1       4.419  -1.945   0.901  1.00  0.00     0.031 A 
HETATM    6  C   UNL     1       4.015  -3.240   0.530  1.00  0.00     0.032 A 
ENDROOT
BRANCH   1   7
HETATM    7  N   UNL     1       2.220  -4.936   0.376  1.00  0.00    -0.333 N 
HETATM    8  H   UNL     1       1.313  -5.143   0.778  1.00  0.00     0.168 HD
BRANCH   7   9
HETATM    9  C   UNL     1       3.025  -6.029   0.260  1.00  0.00     0.179 C 
HETATM   10  S   UNL     1       3.455  -6.953   1.585  1.00  0.00    -0.040 SA
BRANCH   9  11
HETATM   11  N   UNL     1       3.285  -6.519  -0.996  1.00  0.00    -0.299 N 
HETATM   12  C   UNL     1       2.851  -6.019  -2.218  1.00  0.00     0.257 C 
HETATM   13  O   UNL     1       2.640  -4.829  -2.434  1.00  0.00    -0.267 OA
HETATM   14  H   UNL     1       3.656  -7.454  -0.954  1.00  0.00     0.171 HD
BRANCH  12  15
HETATM   15  C   UNL     1       2.687  -6.994  -3.347  1.00  0.00     0.034 A 
HETATM   16  C   UNL     1       3.105  -8.330  -3.310  1.00  0.00     0.044 A 
HETATM   17  C   UNL     1       2.874  -9.199  -4.400  1.00  0.00     0.068 A 
HETATM   18  C   UNL     1       2.211  -8.739  -5.545  1.00  0.00     0.089 A 
HETATM   19 CL   UNL     1       3.497 -10.799  -4.192  1.00  0.00    -0.081 Cl
HETATM   20  C   UNL     1       1.813  -7.395  -5.578  1.00  0.00     0.039 A 
HETATM   21  C   UNL     1       2.045  -6.535  -4.501  1.00  0.00     0.020 A 
BRANCH  18  22
HETATM   22  O   UNL     1       1.885  -9.380  -6.705  1.00  0.00    -0.354 OA
HETATM   23  C   UNL     1       1.939 -10.793  -6.794  1.00  0.00     0.210 C 
ENDBRANCH  18  22
ENDBRANCH  12  15
ENDBRANCH   9  11
ENDBRANCH   7   9
ENDBRANCH   1   7
BRANCH   4  24
HETATM   24  N   UNL     1       3.833   0.281   1.809  1.00  0.00    -0.378 N 
HETATM   25  C   UNL     1       5.179   0.533   2.344  1.00  0.00     0.150 C 
HETATM   26  C   UNL     1       5.172   1.881   3.105  1.00  0.00     0.255 C 
HETATM   27  N   UNL     1       4.668   3.023   2.214  1.00  0.00    -0.064 N 
HETATM   28  H   UNL     1       5.363   3.157   1.467  1.00  0.00     0.280 HD
HETATM   29  C   UNL     1       3.332   2.676   1.551  1.00  0.00     0.255 C 
HETATM   30  C   UNL     1       3.374   1.304   0.850  1.00  0.00     0.150 C 
BRANCH  27  31
HETATM   31  C   UNL     1       4.551   4.338   2.951  1.00  0.00     0.276 C 
BRANCH  31  32
HETATM   32  C   UNL     1       5.827   4.860   3.538  1.00  0.00     0.006 A 
HETATM   33  C   UNL     1       6.901   5.179   2.703  1.00  0.00     0.124 A 
HETATM   34  F   UNL     1       6.789   4.948   1.386  1.00  0.00    -0.206 F 
HETATM   35  C   UNL     1       8.082   5.711   3.208  1.00  0.00     0.043 A 
HETATM   36  C   UNL     1       8.202   5.930   4.579  1.00  0.00     0.003 A 
HETATM   37  C   UNL     1       7.144   5.613   5.431  1.00  0.00     0.001 A 
HETATM   38  C   UNL     1       5.959   5.083   4.916  1.00  0.00     0.012 A 
ENDBRANCH  31  32
ENDBRANCH  27  31
ENDBRANCH   4  24
TORSDOF 8
