REMARK  8 active torsions:
REMARK  status: ('A' for Active; 'I' for Inactive)
REMARK    1  A    between atoms: C_4  and  C_5 
REMARK    2  A    between atoms: C_5  and  N_6 
REMARK    3  A    between atoms: N_6  and  C_9 
REMARK    4  A    between atoms: C_9  and  C_10 
REMARK    5  A    between atoms: C_10  and  C_11 
REMARK    6  A    between atoms: C_11  and  N_12 
REMARK       I    between atoms: N_12  and  C_13 
REMARK    7  A    between atoms: C_13  and  C_14 
REMARK    8  A    between atoms: C_16  and  O_17 
ROOT
HETATM    1  C   UNL     1       4.251   4.127   2.572  1.00  0.00     0.047 C 
ENDROOT
BRANCH   1   2
HETATM    2  C   UNL     1       4.240   3.131   1.421  1.00  0.00     0.235 C 
BRANCH   2   3
HETATM    3  N   UNL     1       5.561   2.434   1.374  1.00  0.00    -0.067 N 
HETATM    4  H   UNL     1       5.764   1.962   2.264  1.00  0.00     0.277 HD
HETATM    5  H   UNL     1       6.287   3.160   1.277  1.00  0.00     0.277 HD
BRANCH   3   6
HETATM    6  C   UNL     1       5.768   1.462   0.247  1.00  0.00     0.223 C 
HETATM    7  C   UNL     1       4.841   0.259   0.415  1.00  0.00     0.046 C 
BRANCH   6   8
HETATM    8  C   UNL     1       7.200   1.033   0.162  1.00  0.00     0.032 A 
HETATM    9  S   UNL     1       8.095   0.525   1.542  1.00  0.00    -0.076 SA
HETATM   10  C   UNL     1       9.467   0.245   0.546  1.00  0.00     0.071 A 
HETATM   11  C   UNL     1      10.734  -0.272   1.134  1.00  0.00     0.078 C 
HETATM   12  N   UNL     1       9.293   0.514  -0.729  1.00  0.00    -0.257 NA
HETATM   13  C   UNL     1       8.008   0.952  -0.956  1.00  0.00     0.134 A 
ENDBRANCH   6   8
ENDBRANCH   3   6
ENDBRANCH   2   3
ENDBRANCH   1   2
BRANCH   1  14
HETATM   14  C   UNL     1       3.016   5.031   2.582  1.00  0.00     0.124 C 
BRANCH  14  15
HETATM   15  N   UNL     1       2.693   5.693   1.330  1.00  0.00    -0.357 N 
HETATM   16  C   UNL     1       3.635   6.358   0.566  1.00  0.00     0.251 C 
HETATM   17  O   UNL     1       4.844   6.225   0.714  1.00  0.00    -0.268 OA
HETATM   18  H   UNL     1       1.744   6.051   1.257  1.00  0.00     0.162 HD
BRANCH  16  19
HETATM   19  C   UNL     1       3.099   7.253  -0.487  1.00  0.00     0.034 A 
HETATM   20  C   UNL     1       3.723   8.486  -0.701  1.00  0.00     0.053 A 
HETATM   21  C   UNL     1       3.225   9.332  -1.686  1.00  0.00     0.066 A 
HETATM   22  C   UNL     1       2.135   8.957  -2.466  1.00  0.00     0.036 A 
HETATM   23  C   UNL     1       1.524   7.720  -2.263  1.00  0.00     0.004 A 
HETATM   24  C   UNL     1       2.003   6.864  -1.270  1.00  0.00     0.017 A 
BRANCH  21  25
HETATM   25  O   UNL     1       3.778  10.554  -1.925  1.00  0.00    -0.361 OA
HETATM   26  H   UNL     1       4.511  10.708  -1.307  1.00  0.00     0.217 HD
ENDBRANCH  21  25
ENDBRANCH  16  19
ENDBRANCH  14  15
ENDBRANCH   1  14
TORSDOF 8
