REMARK  7 active torsions:
REMARK  status: ('A' for Active; 'I' for Inactive)
REMARK       I    between atoms: C_2  and  N_3 
REMARK    1  A    between atoms: N_3  and  C_4 
REMARK    2  A    between atoms: C_6  and  N_7 
REMARK       I    between atoms: N_7  and  C_8 
REMARK    3  A    between atoms: C_8  and  C_9 
REMARK       I    between atoms: C_9  and  N_10 
REMARK    4  A    between atoms: N_10  and  C_11 
REMARK    5  A    between atoms: C_11  and  C_12 
REMARK    6  A    between atoms: C_12  and  O_13 
REMARK    7  A    between atoms: C_12  and  C_14 
ROOT
HETATM    1  C   UNL     1       6.008  -4.005  -3.950  1.00  0.00     0.309 C 
HETATM    2  N   UNL     1       6.263  -4.942  -2.979  1.00  0.00    -0.350 N 
HETATM    3  O   UNL     1       6.462  -3.994  -5.087  1.00  0.00    -0.262 OA
HETATM    4  H   UNL     1       5.966  -4.705  -2.033  1.00  0.00     0.163 HD
ENDROOT
BRANCH   1   5
HETATM    5  C   UNL     1       5.091  -2.855  -3.480  1.00  0.00     0.313 C 
HETATM    6  N   UNL     1       4.997  -1.854  -4.424  1.00  0.00    -0.319 N 
HETATM    7  H   UNL     1       5.528  -2.032  -5.275  1.00  0.00     0.169 HD
HETATM    8  O   UNL     1       4.590  -2.915  -2.366  1.00  0.00    -0.262 OA
BRANCH   6   9
HETATM    9  C   UNL     1       4.332  -0.622  -4.306  1.00  0.00     0.037 A 
HETATM   10  C   UNL     1       3.567  -0.258  -3.194  1.00  0.00     0.059 A 
HETATM   11  C   UNL     1       2.982   1.014  -3.097  1.00  0.00     0.036 A 
HETATM   12  C   UNL     1       3.127   1.904  -4.159  1.00  0.00     0.029 A 
HETATM   13  C   UNL     1       3.868   1.541  -5.287  1.00  0.00     0.004 A 
HETATM   14  C   UNL     1       4.472   0.286  -5.357  1.00  0.00     0.029 A 
BRANCH  11  15
HETATM   15  N   UNL     1       2.241   1.277  -1.931  1.00  0.00    -0.327 N 
HETATM   16  C   UNL     1       1.816   2.431  -1.345  1.00  0.00     0.218 C 
HETATM   17  C   UNL     1       2.335   3.767  -1.797  1.00  0.00     0.117 C 
HETATM   18  O   UNL     1       1.035   2.357  -0.392  1.00  0.00    -0.274 OA
HETATM   19  H   UNL     1       1.968   0.468  -1.383  1.00  0.00     0.169 HD
ENDBRANCH  11  15
ENDBRANCH   6   9
ENDBRANCH   1   5
BRANCH   2  20
HETATM   20  C   UNL     1       7.297  -5.951  -3.129  1.00  0.00     0.159 C 
BRANCH  20  21
HETATM   21  C   UNL     1       7.171  -7.052  -2.063  1.00  0.00     0.171 C 
BRANCH  21  22
HETATM   22  O   UNL     1       7.289  -6.446  -0.766  1.00  0.00    -0.389 OA
HETATM   23  H   UNL     1       7.346  -7.185  -0.135  1.00  0.00     0.210 HD
ENDBRANCH  21  22
BRANCH  21  24
HETATM   24  C   UNL     1       8.187  -8.137  -2.250  1.00  0.00     0.000 A 
HETATM   25  C   UNL     1       8.007  -9.347  -2.995  1.00  0.00     0.001 A 
HETATM   26  C   UNL     1       9.198 -10.078  -2.915  1.00  0.00     0.044 A 
HETATM   27  C   UNL     1       6.930  -9.882  -3.733  1.00  0.00     0.014 A 
HETATM   28  C   UNL     1       9.342 -11.327  -3.541  1.00  0.00     0.030 A 
HETATM   29  N   UNL     1      10.073  -9.332  -2.155  1.00  0.00    -0.360 N 
HETATM   30  C   UNL     1       8.258 -11.835  -4.264  1.00  0.00     0.002 A 
HETATM   31  C   UNL     1       7.068 -11.123  -4.362  1.00  0.00     0.001 A 
HETATM   32  C   UNL     1      11.433  -9.685  -1.812  1.00  0.00     0.155 C 
HETATM   33  C   UNL     1       9.475  -8.167  -1.751  1.00  0.00     0.101 A 
ENDBRANCH  21  24
ENDBRANCH  20  21
ENDBRANCH   2  20
TORSDOF 7
