REMARK  3 active torsions:
REMARK  status: ('A' for Active; 'I' for Inactive)
REMARK    1  A    between atoms: C_9  and  C_10 
REMARK    2  A    between atoms: C_16  and  C_17 
REMARK       I    between atoms: C_17  and  N_18 
REMARK    3  A    between atoms: N_18  and  C_19 
ROOT
HETATM    1  C   UNL     1       1.039   0.079  -0.379  1.00  0.00     0.070 C 
HETATM    2  C   UNL     1       2.464   0.027   0.113  1.00  0.00     0.037 C 
HETATM    3  N   UNL     1       3.053   1.259   0.380  1.00  0.00    -0.191 N 
HETATM    4  C   UNL     1       4.377   1.404   0.596  1.00  0.00     0.735 A 
HETATM    5  N   UNL     1       5.165   0.292   0.699  1.00  0.00    -0.092 N 
HETATM    6  N   UNL     1       6.453   0.647   0.832  1.00  0.00     0.012 NA
HETATM    7  N   UNL     1       6.431   1.976   0.858  1.00  0.00     0.033 NA
HETATM    8  N   UNL     1       5.144   2.460   0.711  1.00  0.00     0.030 NA
HETATM    9  C   UNL     1       4.675  -1.083   0.616  1.00  0.00     0.198 C 
HETATM   10  C   UNL     1       3.197  -1.109   0.238  1.00  0.00     0.062 C 
HETATM   11  H   UNL     1       2.503   2.094   0.186  1.00  0.00     0.184 HD
ENDROOT
BRANCH  10  12
HETATM   12  C   UNL     1       2.686  -2.467  -0.092  1.00  0.00     0.257 C 
HETATM   13  N   UNL     1       1.567  -2.808   0.631  1.00  0.00    -0.308 N 
HETATM   14  H   UNL     1       1.228  -2.156   1.322  1.00  0.00     0.170 HD
HETATM   15  O   UNL     1       3.310  -3.135  -0.905  1.00  0.00    -0.267 OA
BRANCH  13  16
HETATM   16  C   UNL     1       0.844  -3.999   0.487  1.00  0.00     0.129 A 
HETATM   17  N   UNL     1       1.239  -4.943  -0.382  1.00  0.00    -0.243 NA
HETATM   18  C   UNL     1       0.494  -6.064  -0.486  1.00  0.00     0.119 A 
HETATM   19  C   UNL     1      -0.660  -6.290   0.241  1.00  0.00     0.019 A 
HETATM   20  C   UNL     1      -1.068  -5.307   1.132  1.00  0.00     0.005 A 
HETATM   21  C   UNL     1      -0.304  -4.147   1.262  1.00  0.00     0.050 A 
ENDBRANCH  13  16
ENDBRANCH  10  12
BRANCH   9  22
HETATM   22  C   UNL     1       4.946  -1.823   1.923  1.00  0.00    -0.029 A 
HETATM   23  C   UNL     1       4.520  -1.320   3.166  1.00  0.00     0.009 A 
HETATM   24  C   UNL     1       4.786  -2.021   4.344  1.00  0.00     0.001 A 
HETATM   25  C   UNL     1       5.470  -3.233   4.297  1.00  0.00     0.000 A 
HETATM   26  C   UNL     1       5.884  -3.752   3.073  1.00  0.00     0.001 A 
HETATM   27  C   UNL     1       5.621  -3.055   1.893  1.00  0.00     0.009 A 
ENDBRANCH   9  22
TORSDOF 3
