REMARK  4 active torsions:
REMARK  status: ('A' for Active; 'I' for Inactive)
REMARK    1  A    between atoms: C_2  and  C_3 
REMARK    2  A    between atoms: C_7  and  C_8 
REMARK       I    between atoms: C_8  and  N_9 
REMARK    3  A    between atoms: N_9  and  C_10 
REMARK    4  A    between atoms: C_10  and  C_11 
ROOT
HETATM    1  C   UNL     1       4.042   4.595  -0.714  1.00  0.00     0.270 C 
HETATM    2  N   UNL     1       5.042   3.802  -1.218  1.00  0.00    -0.351 N 
HETATM    3  O   UNL     1       2.992   4.139  -0.276  1.00  0.00    -0.266 OA
HETATM    4  H   UNL     1       5.926   4.210  -1.483  1.00  0.00     0.163 HD
ENDROOT
BRANCH   1   5
HETATM    5  C   UNL     1       4.302   6.009  -0.738  1.00  0.00     0.120 A 
HETATM    6  N   UNL     1       3.372   6.905  -0.291  1.00  0.00    -0.272 N 
HETATM    7  N   UNL     1       3.759   8.185  -0.366  1.00  0.00    -0.174 NA
HETATM    8  H   UNL     1       2.451   6.689   0.080  1.00  0.00     0.189 HD
HETATM    9  C   UNL     1       4.992   8.139  -0.894  1.00  0.00     0.089 A 
HETATM   10  C   UNL     1       5.368   6.787  -1.144  1.00  0.00     0.071 A 
BRANCH   9  11
HETATM   11  C   UNL     1       5.767   9.363  -1.133  1.00  0.00    -0.005 A 
HETATM   12  C   UNL     1       5.366  10.579  -0.551  1.00  0.00     0.017 A 
HETATM   13  C   UNL     1       6.097  11.751  -0.761  1.00  0.00     0.043 A 
HETATM   14  C   UNL     1       7.232  11.713  -1.558  1.00  0.00     0.116 A 
HETATM   15  C   UNL     1       7.648  10.527  -2.150  1.00  0.00     0.043 A 
HETATM   16  F   UNL     1       7.935  12.835  -1.762  1.00  0.00    -0.206 F 
HETATM   17  C   UNL     1       6.918   9.353  -1.939  1.00  0.00     0.017 A 
ENDBRANCH   9  11
ENDBRANCH   1   5
BRANCH   2  18
HETATM   18  C   UNL     1       4.937   2.361  -1.225  1.00  0.00     0.161 C 
BRANCH  18  19
HETATM   19  C   UNL     1       5.587   1.765  -2.448  1.00  0.00    -0.040 A 
HETATM   20  C   UNL     1       5.268   2.240  -3.730  1.00  0.00     0.018 A 
HETATM   21  C   UNL     1       5.838   1.668  -4.877  1.00  0.00    -0.024 A 
HETATM   22  C   UNL     1       6.703   0.579  -4.735  1.00  0.00     0.075 A 
HETATM   23  C   UNL     1       5.486   2.202  -6.235  1.00  0.00     0.043 C 
HETATM   24  O   UNL     1       7.294  -0.061  -5.793  1.00  0.00    -0.351 OA
HETATM   25  C   UNL     1       7.031   0.101  -3.468  1.00  0.00     0.038 A 
HETATM   26  C   UNL     1       6.681   0.200  -7.059  1.00  0.00     0.176 C 
HETATM   27  C   UNL     1       6.461   1.686  -7.284  1.00  0.00     0.031 C 
HETATM   28  C   UNL     1       6.474   0.687  -2.329  1.00  0.00     0.011 A 
ENDBRANCH  18  19
ENDBRANCH   2  18
TORSDOF 4
