REMARK  5 active torsions:
REMARK  status: ('A' for Active; 'I' for Inactive)
REMARK    1  A    between atoms: O_1  and  C_2 
REMARK    2  A    between atoms: C_6  and  C_7 
REMARK    3  A    between atoms: C_7  and  N_8 
REMARK       I    between atoms: N_8  and  C_9 
REMARK    4  A    between atoms: C_9  and  C_11 
REMARK    5  A    between atoms: C_14  and  C_17 
ROOT
HETATM    1  N   UNL     1       4.412  -3.891  -0.992  1.00  0.00    -0.353 N 
HETATM    2  C   UNL     1       4.861  -5.130  -0.591  1.00  0.00     0.251 C 
HETATM    3  O   UNL     1       6.021  -5.362  -0.270  1.00  0.00    -0.268 OA
HETATM    4  H   UNL     1       3.509  -3.810  -1.435  1.00  0.00     0.163 HD
ENDROOT
BRANCH   2   5
HETATM    5  C   UNL     1       3.861  -6.234  -0.607  1.00  0.00     0.032 A 
HETATM    6  C   UNL     1       4.323  -7.542  -0.783  1.00  0.00     0.018 A 
HETATM    7  C   UNL     1       3.422  -8.611  -0.828  1.00  0.00     0.013 A 
HETATM    8  C   UNL     1       2.040  -8.402  -0.686  1.00  0.00    -0.026 A 
HETATM    9  C   UNL     1       1.594  -7.084  -0.483  1.00  0.00     0.013 A 
HETATM   10  C   UNL     1       2.491  -6.009  -0.441  1.00  0.00     0.018 A 
BRANCH   8  11
HETATM   11  C   UNL     1       1.090  -9.528  -0.750  1.00  0.00    -0.023 A 
HETATM   12  C   UNL     1       1.303 -10.704  -0.019  1.00  0.00     0.031 A 
HETATM   13  C   UNL     1       0.386 -11.739  -0.120  1.00  0.00     0.117 A 
HETATM   14  N   UNL     1      -0.720 -11.689  -0.889  1.00  0.00    -0.273 NA
HETATM   15  C   UNL     1      -0.917 -10.553  -1.588  1.00  0.00     0.117 A 
HETATM   16  C   UNL     1      -0.057  -9.466  -1.551  1.00  0.00     0.031 A 
ENDBRANCH   8  11
ENDBRANCH   2   5
BRANCH   1  17
HETATM   17  C   UNL     1       5.317  -2.775  -1.161  1.00  0.00     0.161 C 
BRANCH  17  18
HETATM   18  C   UNL     1       5.530  -2.477  -2.623  1.00  0.00    -0.038 A 
HETATM   19  C   UNL     1       6.238  -3.376  -3.436  1.00  0.00     0.009 A 
HETATM   20  C   UNL     1       6.428  -3.109  -4.794  1.00  0.00     0.003 A 
HETATM   21  C   UNL     1       5.917  -1.939  -5.355  1.00  0.00     0.036 A 
HETATM   22  C   UNL     1       5.217  -1.046  -4.550  1.00  0.00     0.066 A 
HETATM   23  C   UNL     1       5.018  -1.305  -3.197  1.00  0.00     0.045 A 
BRANCH  22  24
HETATM   24  O   UNL     1       4.703   0.112  -5.055  1.00  0.00    -0.361 OA
HETATM   25  H   UNL     1       4.953   0.177  -5.991  1.00  0.00     0.217 HD
ENDBRANCH  22  24
ENDBRANCH  17  18
ENDBRANCH   1  17
TORSDOF 5
