REMARK  10 active torsions:
REMARK  status: ('A' for Active; 'I' for Inactive)
REMARK    1  A    between atoms: C_2  and  O_3 
REMARK    2  A    between atoms: O_3  and  C_4 
REMARK    3  A    between atoms: C_4  and  O_5 
REMARK    4  A    between atoms: C_4  and  C_8 
REMARK    5  A    between atoms: C_4  and  C_14 
REMARK    6  A    between atoms: O_5  and  C_6 
REMARK    7  A    between atoms: C_14  and  N_15 
REMARK       I    between atoms: N_15  and  C_16 
REMARK    8  A    between atoms: C_16  and  C_17 
REMARK    9  A    between atoms: C_19  and  N_20 
REMARK       I    between atoms: N_20  and  C_21 
REMARK   10  A    between atoms: C_21  and  C_22 
ROOT
HETATM    1  N   UNL     1       6.552   2.833  -1.032  1.00  0.00    -0.351 N 
HETATM    2  C   UNL     1       7.194   3.870  -1.671  1.00  0.00     0.251 C 
HETATM    3  O   UNL     1       6.630   4.667  -2.408  1.00  0.00    -0.268 OA
HETATM    4  H   UNL     1       7.023   2.351  -0.274  1.00  0.00     0.162 HD
ENDROOT
BRANCH   2   5
HETATM    5  C   UNL     1       8.651   3.988  -1.395  1.00  0.00     0.034 A 
HETATM    6  C   UNL     1       9.422   2.846  -1.132  1.00  0.00     0.046 A 
HETATM    7  C   UNL     1      10.784   2.955  -0.853  1.00  0.00     0.035 A 
HETATM    8  C   UNL     1      11.374   4.225  -0.865  1.00  0.00     0.029 A 
HETATM    9  C   UNL     1      10.617   5.363  -1.158  1.00  0.00     0.003 A 
HETATM   10  C   UNL     1       9.254   5.246  -1.427  1.00  0.00     0.017 A 
BRANCH   7  11
HETATM   11  N   UNL     1      11.608   1.853  -0.547  1.00  0.00    -0.322 N 
HETATM   12  C   UNL     1      11.256   0.512  -0.488  1.00  0.00     0.263 C 
HETATM   13  O   UNL     1      10.138   0.079  -0.756  1.00  0.00    -0.267 OA
HETATM   14  H   UNL     1      12.577   2.056  -0.332  1.00  0.00     0.169 HD
BRANCH  12  15
HETATM   15  C   UNL     1      12.330  -0.391  -0.075  1.00  0.00     0.072 A 
HETATM   16  S   UNL     1      13.880   0.168   0.402  1.00  0.00    -0.097 SA
HETATM   17  C   UNL     1      14.433  -1.418   0.719  1.00  0.00     0.050 A 
HETATM   18  C   UNL     1      13.467  -2.363   0.462  1.00  0.00     0.009 A 
HETATM   19  C   UNL     1      12.255  -1.771   0.005  1.00  0.00     0.025 A 
ENDBRANCH  12  15
ENDBRANCH   7  11
ENDBRANCH   2   5
BRANCH   1  20
HETATM   20  C   UNL     1       5.140   2.548  -1.265  1.00  0.00     0.198 C 
BRANCH  20  21
HETATM   21  C   UNL     1       4.572   1.247  -0.595  1.00  0.00     0.227 C 
BRANCH  21  22
HETATM   22  O   UNL     1       4.941   0.047  -1.305  1.00  0.00    -0.349 OA
BRANCH  22  23
HETATM   23  C   UNL     1       6.325  -0.139  -1.576  1.00  0.00     0.167 C 
HETATM   24  C   UNL     1       6.533  -1.577  -2.012  1.00  0.00     0.033 C 
ENDBRANCH  22  23
ENDBRANCH  21  22
BRANCH  21  25
HETATM   25  O   UNL     1       3.123   1.337  -0.576  1.00  0.00    -0.349 OA
BRANCH  25  26
HETATM   26  C   UNL     1       2.500   1.185  -1.847  1.00  0.00     0.167 C 
HETATM   27  C   UNL     1       0.998   1.193  -1.634  1.00  0.00     0.033 C 
ENDBRANCH  25  26
ENDBRANCH  21  25
BRANCH  21  28
HETATM   28  C   UNL     1       4.944   1.167   0.909  1.00  0.00     0.097 A 
HETATM   29  N   UNL     1       5.497   0.018   1.393  1.00  0.00    -0.260 NA
HETATM   30  C   UNL     1       5.789  -0.050   2.709  1.00  0.00     0.117 A 
HETATM   31  C   UNL     1       5.585   0.991   3.595  1.00  0.00     0.019 A 
HETATM   32  C   UNL     1       5.034   2.166   3.106  1.00  0.00     0.004 A 
HETATM   33  C   UNL     1       4.699   2.255   1.756  1.00  0.00     0.033 A 
ENDBRANCH  21  28
ENDBRANCH  20  21
ENDBRANCH   1  20
TORSDOF 10
