REMARK  4 active torsions:
REMARK  status: ('A' for Active; 'I' for Inactive)
REMARK    1  A    between atoms: C_8  and  N_9 
REMARK       I    between atoms: N_9  and  C_10 
REMARK       I    between atoms: C_10  and  N_11 
REMARK    2  A    between atoms: N_11  and  C_12 
REMARK    3  A    between atoms: C_15  and  C_16 
REMARK       I    between atoms: C_16  and  N_17 
REMARK    4  A    between atoms: N_17  and  C_18 
ROOT
HETATM    1  C   UNL     1       0.615  -0.475  -0.366  1.00  0.00     0.036 A 
HETATM    2  C   UNL     1      -0.255   0.533   0.056  1.00  0.00     0.030 A 
HETATM    3  C   UNL     1       0.098   1.881  -0.078  1.00  0.00     0.019 A 
HETATM    4  C   UNL     1       1.336   2.233  -0.622  1.00  0.00     0.032 A 
HETATM    5  C   UNL     1       2.190   1.230  -1.090  1.00  0.00     0.019 A 
HETATM    6  C   UNL     1       1.832  -0.116  -0.959  1.00  0.00     0.030 A 
ENDROOT
BRANCH   1   7
HETATM    7  N   UNL     1       0.371  -1.850  -0.175  1.00  0.00    -0.309 N 
HETATM    8  C   UNL     1      -0.777  -2.442   0.333  1.00  0.00     0.325 C 
HETATM    9  N   UNL     1      -0.513  -3.756   0.681  1.00  0.00    -0.305 N 
HETATM   10  O   UNL     1      -1.848  -1.873   0.488  1.00  0.00    -0.247 OA
HETATM   11  H   UNL     1       0.454  -3.977   0.858  1.00  0.00     0.171 HD
HETATM   12  H   UNL     1       1.072  -2.484  -0.526  1.00  0.00     0.170 HD
BRANCH   9  13
HETATM   13  C   UNL     1      -1.430  -4.675   1.165  1.00  0.00     0.086 A 
HETATM   14  C   UNL     1      -1.035  -5.818   1.835  1.00  0.00     0.052 A 
HETATM   15  C   UNL     1       0.295  -6.345   2.219  1.00  0.00     0.072 C 
HETATM   16  N   UNL     1      -2.188  -6.467   2.174  1.00  0.00    -0.280 N 
HETATM   17  H   UNL     1      -2.291  -7.333   2.692  1.00  0.00     0.189 HD
HETATM   18  N   UNL     1      -3.297  -5.858   1.746  1.00  0.00    -0.177 NA
HETATM   19  C   UNL     1      -2.853  -4.758   1.121  1.00  0.00     0.079 A 
HETATM   20  C   UNL     1      -3.849  -3.866   0.474  1.00  0.00     0.075 C 
ENDBRANCH   9  13
ENDBRANCH   1   7
BRANCH   4  21
HETATM   21  C   UNL     1       1.794   3.647  -0.698  1.00  0.00     0.252 C 
HETATM   22  N   UNL     1       1.340   4.478   0.306  1.00  0.00    -0.352 N 
HETATM   23  H   UNL     1       0.791   4.086   1.058  1.00  0.00     0.163 HD
HETATM   24  O   UNL     1       2.572   4.000  -1.576  1.00  0.00    -0.268 OA
BRANCH  22  25
HETATM   25  C   UNL     1       1.758   5.871   0.414  1.00  0.00     0.084 C 
HETATM   26  C   UNL     1       1.028   6.760  -0.602  1.00  0.00     0.025 C 
HETATM   27  C   UNL     1      -0.448   6.953  -0.258  1.00  0.00     0.002 C 
HETATM   28  C   UNL     1      -0.631   7.478   1.162  1.00  0.00     0.000 C 
HETATM   29  C   UNL     1       0.068   6.591   2.187  1.00  0.00     0.002 C 
HETATM   30  C   UNL     1       1.544   6.387   1.845  1.00  0.00     0.025 C 
ENDBRANCH  22  25
ENDBRANCH   4  21
TORSDOF 4
