REMARK  9 active torsions:
REMARK  status: ('A' for Active; 'I' for Inactive)
REMARK    1  A    between atoms: C_2  and  C_3 
REMARK    2  A    between atoms: C_3  and  C_4 
REMARK    3  A    between atoms: C_4  and  C_5 
REMARK    4  A    between atoms: C_5  and  N_6 
REMARK    5  A    between atoms: C_15  and  C_16 
REMARK       I    between atoms: C_16  and  N_17 
REMARK    6  A    between atoms: N_17  and  C_18 
REMARK    7  A    between atoms: C_18  and  C_19 
REMARK    8  A    between atoms: C_19  and  N_20 
REMARK    9  A    between atoms: N_24  and  C_25 
ROOT
HETATM    1  C   UNL     1      12.649   2.226   0.344  1.00  0.00     0.251 C 
HETATM    2  N   UNL     1      13.398   3.112  -0.395  1.00  0.00    -0.355 N 
HETATM    3  O   UNL     1      13.146   1.261   0.917  1.00  0.00    -0.268 OA
HETATM    4  H   UNL     1      12.917   3.901  -0.815  1.00  0.00     0.162 HD
ENDROOT
BRANCH   1   5
HETATM    5  C   UNL     1      11.190   2.474   0.441  1.00  0.00     0.034 A 
HETATM    6  C   UNL     1      10.446   2.902  -0.668  1.00  0.00     0.047 A 
HETATM    7  C   UNL     1       9.056   2.999  -0.562  1.00  0.00     0.053 A 
HETATM    8  N   UNL     1       8.298   3.386  -1.663  1.00  0.00    -0.308 N 
HETATM    9  C   UNL     1       8.415   2.688   0.632  1.00  0.00     0.059 A 
HETATM   10  C   UNL     1       6.931   3.442  -1.669  1.00  0.00     0.329 A 
HETATM   11  H   UNL     1       8.728   3.632  -2.546  1.00  0.00     0.170 HD
HETATM   12  N   UNL     1       6.287   3.077  -0.499  1.00  0.00    -0.266 N 
HETATM   13  O   UNL     1       6.362   3.802  -2.697  1.00  0.00    -0.246 OA
HETATM   14  C   UNL     1       6.943   2.757   0.686  1.00  0.00     0.264 A 
HETATM   15  O   UNL     1       6.380   2.525   1.753  1.00  0.00    -0.267 OA
HETATM   16  C   UNL     1       9.157   2.280   1.745  1.00  0.00     0.020 A 
HETATM   17  C   UNL     1      10.544   2.162   1.645  1.00  0.00     0.018 A 
BRANCH  12  18
HETATM   18  C   UNL     1       4.827   3.086  -0.486  1.00  0.00     0.137 C 
BRANCH  18  19
HETATM   19  C   UNL     1       4.265   4.431  -0.019  1.00  0.00     0.020 C 
BRANCH  19  20
HETATM   20  C   UNL     1       2.737   4.400   0.019  1.00  0.00     0.001 C 
BRANCH  20  21
HETATM   21  C   UNL     1       2.162   5.721   0.529  1.00  0.00    -0.004 C 
HETATM   22  C   UNL     1       0.643   5.685   0.571  1.00  0.00     0.005 C 
ENDBRANCH  20  21
ENDBRANCH  19  20
ENDBRANCH  18  19
ENDBRANCH  12  18
ENDBRANCH   1   5
BRANCH   2  23
HETATM   23  C   UNL     1      14.760   2.856  -0.865  1.00  0.00     0.150 C 
BRANCH  23  24
HETATM   24  C   UNL     1      15.831   2.508   0.199  1.00  0.00     0.254 C 
BRANCH  24  25
HETATM   25  N   UNL     1      15.647   1.147   0.817  1.00  0.00    -0.067 N 
HETATM   26  H   UNL     1      14.638   1.087   1.070  1.00  0.00     0.280 HD
HETATM   27  C   UNL     1      15.886  -0.038  -0.114  1.00  0.00     0.254 C 
HETATM   28  C   UNL     1      15.483  -1.350   0.591  1.00  0.00     0.150 C 
HETATM   29  N   UNL     1      16.194  -1.498   1.872  1.00  0.00    -0.378 N 
HETATM   30  C   UNL     1      16.025  -0.366   2.806  1.00  0.00     0.150 C 
HETATM   31  C   UNL     1      16.410   0.968   2.125  1.00  0.00     0.254 C 
BRANCH  29  32
HETATM   32  C   UNL     1      17.296  -2.334   2.003  1.00  0.00     0.031 A 
HETATM   33  C   UNL     1      18.045  -2.786   0.906  1.00  0.00     0.053 A 
HETATM   34  C   UNL     1      19.131  -3.655   1.069  1.00  0.00     0.036 A 
HETATM   35 CL   UNL     1      20.019  -4.167  -0.314  1.00  0.00    -0.084 Cl
HETATM   36  C   UNL     1      19.498  -4.105   2.330  1.00  0.00     0.024 A 
HETATM   37  C   UNL     1      18.768  -3.684   3.435  1.00  0.00     0.004 A 
HETATM   38  C   UNL     1      17.684  -2.814   3.267  1.00  0.00     0.029 A 
ENDBRANCH  29  32
ENDBRANCH  24  25
ENDBRANCH  23  24
ENDBRANCH   2  23
TORSDOF 9
