REMARK  10 active torsions:
REMARK  status: ('A' for Active; 'I' for Inactive)
REMARK    1  A    between atoms: C_2  and  C_3 
REMARK    2  A    between atoms: C_3  and  C_4 
REMARK    3  A    between atoms: N_7  and  C_9 
REMARK    4  A    between atoms: C_9  and  C_10 
REMARK    5  A    between atoms: C_12  and  O_13 
REMARK    6  A    between atoms: O_13  and  C_14 
REMARK    7  A    between atoms: C_16  and  O_17 
REMARK    8  A    between atoms: N_25  and  C_26 
REMARK    9  A    between atoms: C_26  and  C_27 
REMARK   10  A    between atoms: C_27  and  C_28 
ROOT
HETATM    1  C   UNL     1       4.362   1.381   0.855  1.00  0.00     0.026 C 
HETATM    2  C   UNL     1       4.998   2.737   1.235  1.00  0.00     0.035 C 
HETATM    3  C   UNL     1       5.045   3.760   0.106  1.00  0.00     0.235 C 
HETATM    4  N   UNL     1       5.726   3.176  -1.107  1.00  0.00    -0.067 N 
HETATM    5  H   UNL     1       6.710   3.031  -0.847  1.00  0.00     0.280 HD
HETATM    6  C   UNL     1       5.158   1.848  -1.544  1.00  0.00     0.235 C 
HETATM    7  C   UNL     1       5.102   0.859  -0.390  1.00  0.00     0.035 C 
ENDROOT
BRANCH   1   8
HETATM    8  C   UNL     1       2.789   1.370   0.774  1.00  0.00     0.119 A 
HETATM    9  N   UNL     1       2.279   2.326  -0.178  1.00  0.00    -0.324 N 
HETATM   10  C   UNL     1       1.597   3.358   0.431  1.00  0.00     0.326 A 
HETATM   11  H   UNL     1       2.109   2.165  -1.164  1.00  0.00     0.165 HD
HETATM   12  O   UNL     1       1.155   4.302  -0.198  1.00  0.00    -0.247 OA
HETATM   13  N   UNL     1       1.588   3.151   1.773  1.00  0.00    -0.268 N 
HETATM   14  C   UNL     1       2.235   1.984   2.081  1.00  0.00     0.256 A 
HETATM   15  O   UNL     1       2.432   1.529   3.198  1.00  0.00    -0.270 OA
BRANCH   8  16
HETATM   16  C   UNL     1       2.208  -0.037   0.540  1.00  0.00     0.037 C 
HETATM   17  C   UNL     1       0.682  -0.113   0.541  1.00  0.00     0.008 C 
ENDBRANCH   8  16
BRANCH  13  18
HETATM   18  C   UNL     1       1.132   4.117   2.760  1.00  0.00     0.142 C 
BRANCH  18  19
HETATM   19  C   UNL     1      -0.341   4.510   2.617  1.00  0.00     0.068 C 
BRANCH  19  20
HETATM   20  C   UNL     1      -0.724   5.517   3.658  1.00  0.00     0.010 A 
HETATM   21  S   UNL     1      -0.379   7.186   3.429  1.00  0.00    -0.085 SA
HETATM   22  C   UNL     1      -1.055   7.523   4.964  1.00  0.00     0.166 A 
HETATM   23  N   UNL     1      -1.521   6.489   5.626  1.00  0.00    -0.258 NA
HETATM   24  C   UNL     1      -1.350   5.333   4.882  1.00  0.00     0.044 A 
HETATM   25  C   UNL     1      -1.832   4.050   5.458  1.00  0.00     0.071 C 
ENDBRANCH  19  20
ENDBRANCH  18  19
ENDBRANCH  13  18
ENDBRANCH   1   8
BRANCH   4  26
HETATM   26  C   UNL     1       5.737   4.136  -2.292  1.00  0.00     0.273 C 
BRANCH  26  27
HETATM   27  C   UNL     1       6.149   5.550  -1.985  1.00  0.00    -0.030 A 
HETATM   28  C   UNL     1       5.237   6.605  -2.201  1.00  0.00     0.048 A 
HETATM   29  C   UNL     1       5.598   7.925  -1.929  1.00  0.00     0.102 A 
HETATM   30  C   UNL     1       6.866   8.179  -1.404  1.00  0.00     0.099 A 
HETATM   31  C   UNL     1       7.782   7.157  -1.189  1.00  0.00     0.040 A 
HETATM   32  C   UNL     1       7.431   5.841  -1.492  1.00  0.00     0.012 A 
BRANCH  29  33
HETATM   33  O   UNL     1       4.808   9.028  -2.112  1.00  0.00    -0.349 OA
BRANCH  33  34
HETATM   34  C   UNL     1       3.692   8.880  -2.993  1.00  0.00     0.171 C 
HETATM   35  C   UNL     1       3.150  10.263  -3.305  1.00  0.00     0.034 C 
ENDBRANCH  33  34
ENDBRANCH  29  33
BRANCH  30  36
HETATM   36  O   UNL     1       7.247   9.455  -1.098  1.00  0.00    -0.358 OA
HETATM   37  H   UNL     1       6.485  10.024  -1.326  1.00  0.00     0.218 HD
ENDBRANCH  30  36
ENDBRANCH  26  27
ENDBRANCH   4  26
TORSDOF 10
