REMARK  9 active torsions:
REMARK  status: ('A' for Active; 'I' for Inactive)
REMARK    1  A    between atoms: C_7  and  C_8 
REMARK    2  A    between atoms: C_9  and  O_10 
REMARK    3  A    between atoms: C_13  and  N_14 
REMARK    4  A    between atoms: N_14  and  C_15 
REMARK    5  A    between atoms: C_15  and  N_16 
REMARK       I    between atoms: N_16  and  C_17 
REMARK    6  A    between atoms: C_17  and  C_18 
REMARK    7  A    between atoms: C_20  and  O_21 
REMARK    8  A    between atoms: O_21  and  C_22 
REMARK    9  A    between atoms: C_22  and  C_23 
ROOT
HETATM    1  C   UNL     1      10.614  -3.326   1.349  1.00  0.00     0.052 A 
HETATM    2  C   UNL     1      11.671  -3.422   0.435  1.00  0.00     0.080 A 
HETATM    3  C   UNL     1      11.733  -4.477  -0.482  1.00  0.00     0.040 A 
HETATM    4  C   UNL     1      10.733  -5.453  -0.496  1.00  0.00     0.032 A 
HETATM    5  C   UNL     1       9.634  -5.339   0.352  1.00  0.00     0.035 A 
HETATM    6  C   UNL     1       9.583  -4.282   1.264  1.00  0.00     0.048 A 
ENDROOT
BRANCH   5   7
HETATM    7  N   UNL     1       8.674  -6.369   0.362  1.00  0.00    -0.333 N 
HETATM    8  H   UNL     1       9.013  -7.302   0.130  1.00  0.00     0.168 HD
BRANCH   7   9
HETATM    9  C   UNL     1       7.365  -6.298   0.763  1.00  0.00     0.179 C 
HETATM   10  S   UNL     1       6.321  -5.001   0.574  1.00  0.00    -0.040 SA
BRANCH   9  11
HETATM   11  N   UNL     1       6.861  -7.413   1.388  1.00  0.00    -0.299 N 
HETATM   12  C   UNL     1       7.579  -8.496   1.874  1.00  0.00     0.257 C 
HETATM   13  O   UNL     1       8.657  -8.878   1.437  1.00  0.00    -0.267 OA
HETATM   14  H   UNL     1       5.955  -7.226   1.798  1.00  0.00     0.171 HD
BRANCH  12  15
HETATM   15  C   UNL     1       6.929  -9.193   3.011  1.00  0.00     0.035 A 
HETATM   16  C   UNL     1       5.557  -9.477   2.991  1.00  0.00     0.053 A 
HETATM   17  C   UNL     1       4.942 -10.004   4.126  1.00  0.00     0.069 A 
HETATM   18  C   UNL     1       5.714 -10.269   5.262  1.00  0.00     0.037 A 
HETATM   19  C   UNL     1       7.088 -10.019   5.270  1.00  0.00     0.004 A 
HETATM   20  C   UNL     1       7.701  -9.481   4.140  1.00  0.00     0.017 A 
BRANCH  17  21
HETATM   21  O   UNL     1       3.610 -10.277   4.262  1.00  0.00    -0.351 OA
BRANCH  21  22
HETATM   22  C   UNL     1       2.774 -10.061   3.124  1.00  0.00     0.179 C 
BRANCH  22  23
HETATM   23  C   UNL     1       1.301 -10.286   3.501  1.00  0.00     0.002 C 
HETATM   24  C   UNL     1       1.066 -11.697   4.038  1.00  0.00     0.011 C 
HETATM   25  C   UNL     1       0.832  -9.249   4.523  1.00  0.00     0.011 C 
ENDBRANCH  22  23
ENDBRANCH  21  22
ENDBRANCH  17  21
ENDBRANCH  12  15
ENDBRANCH   9  11
ENDBRANCH   7   9
ENDBRANCH   5   7
BRANCH   1  26
HETATM   26  C   UNL     1      10.595  -2.358   2.448  1.00  0.00     0.183 A 
HETATM   27  O   UNL     1       9.365  -2.151   3.033  1.00  0.00    -0.288 OA
HETATM   28  C   UNL     1       9.633  -1.395   4.135  1.00  0.00     0.112 A 
HETATM   29  C   UNL     1      10.996  -1.157   4.153  1.00  0.00     0.094 A 
HETATM   30  C   UNL     1       8.725  -0.963   5.101  1.00  0.00    -0.025 A 
HETATM   31  C   UNL     1      11.544  -0.430   5.217  1.00  0.00     0.041 A 
HETATM   32  N   UNL     1      11.592  -1.754   3.072  1.00  0.00    -0.221 NA
HETATM   33  C   UNL     1      10.684   0.025   6.234  1.00  0.00    -0.059 A 
HETATM   34  C   UNL     1      11.248   0.738   7.429  1.00  0.00     0.048 C 
HETATM   35  C   UNL     1       9.305  -0.253   6.170  1.00  0.00     0.016 A 
HETATM   36  C   UNL     1       7.264  -1.273   5.073  1.00  0.00     0.051 C 
ENDBRANCH   1  26
BRANCH   2  37
HETATM   37  O   UNL     1      12.662  -2.481   0.430  1.00  0.00    -0.360 OA
HETATM   38  H   UNL     1      13.331  -2.709  -0.234  1.00  0.00     0.217 HD
ENDBRANCH   2  37
TORSDOF 9
