REMARK  8 active torsions:
REMARK  status: ('A' for Active; 'I' for Inactive)
REMARK    1  A    between atoms: C_2  and  C_3 
REMARK    2  A    between atoms: C_3  and  N_4 
REMARK    3  A    between atoms: C_3  and  C_20 
REMARK    4  A    between atoms: N_4  and  C_7 
REMARK    5  A    between atoms: C_7  and  C_8 
REMARK    6  A    between atoms: C_10  and  O_11 
REMARK    7  A    between atoms: C_13  and  O_14 
REMARK    8  A    between atoms: C_16  and  O_17 
ROOT
HETATM    1  N   UNL     1       4.437   0.421  -1.371  1.00  0.00    -0.060 N 
HETATM    2  H   UNL     1       4.928  -0.477  -1.393  1.00  0.00     0.278 HD
HETATM    3  H   UNL     1       4.632   0.882  -2.276  1.00  0.00     0.278 HD
ENDROOT
BRANCH   1   4
HETATM    4  C   UNL     1       2.942   0.284  -1.316  1.00  0.00     0.258 C 
BRANCH   4   5
HETATM    5  C   UNL     1       2.487  -1.017  -2.022  1.00  0.00     0.016 C 
HETATM    6  C   UNL     1       2.893  -2.261  -1.223  1.00  0.00     0.012 C 
HETATM    7  C   UNL     1       2.980  -1.150  -3.469  1.00  0.00     0.012 C 
ENDBRANCH   4   5
BRANCH   4   8
HETATM    8  C   UNL     1       2.345   1.504  -1.951  1.00  0.00     0.136 A 
HETATM    9  N   UNL     1       3.029   2.347  -2.704  1.00  0.00    -0.231 NA
HETATM   10  C   UNL     1       2.130   3.321  -3.070  1.00  0.00     0.085 A 
HETATM   11  C   UNL     1       0.882   3.075  -2.507  1.00  0.00     0.062 A 
HETATM   12  C   UNL     1       2.311   4.451  -3.878  1.00  0.00     0.034 A 
HETATM   13  N   UNL     1       1.041   1.908  -1.802  1.00  0.00    -0.341 N 
HETATM   14  C   UNL     1      -0.220   3.910  -2.698  1.00  0.00     0.032 A 
HETATM   15  H   UNL     1       0.309   1.445  -1.278  1.00  0.00     0.167 HD
HETATM   16  C   UNL     1      -0.021   5.037  -3.505  1.00  0.00     0.002 A 
HETATM   17  C   UNL     1       1.220   5.304  -4.087  1.00  0.00     0.002 A 
ENDBRANCH   4   8
ENDBRANCH   1   4
BRANCH   1  18
HETATM   18  C   UNL     1       5.030   1.294  -0.323  1.00  0.00     0.272 C 
BRANCH  18  19
HETATM   19  C   UNL     1       6.506   1.453  -0.540  1.00  0.00    -0.027 A 
HETATM   20  C   UNL     1       7.002   2.465  -1.370  1.00  0.00     0.048 A 
HETATM   21  C   UNL     1       8.377   2.572  -1.618  1.00  0.00     0.104 A 
HETATM   22  C   UNL     1       9.277   1.647  -1.046  1.00  0.00     0.135 A 
HETATM   23  C   UNL     1       8.784   0.616  -0.232  1.00  0.00     0.104 A 
HETATM   24  C   UNL     1       7.405   0.537   0.016  1.00  0.00     0.048 A 
BRANCH  21  25
HETATM   25  O   UNL     1       8.882   3.499  -2.495  1.00  0.00    -0.353 OA
HETATM   26  C   UNL     1       8.257   4.779  -2.476  1.00  0.00     0.210 C 
ENDBRANCH  21  25
BRANCH  22  27
HETATM   27  O   UNL     1      10.615   1.680  -1.346  1.00  0.00    -0.351 OA
HETATM   28  C   UNL     1      11.246   2.923  -1.038  1.00  0.00     0.210 C 
ENDBRANCH  22  27
BRANCH  23  29
HETATM   29  O   UNL     1       9.466  -0.395   0.391  1.00  0.00    -0.353 OA
HETATM   30  C   UNL     1      10.887  -0.393   0.353  1.00  0.00     0.210 C 
ENDBRANCH  23  29
ENDBRANCH  18  19
ENDBRANCH   1  18
TORSDOF 8
