REMARK  8 active torsions:
REMARK  status: ('A' for Active; 'I' for Inactive)
REMARK    1  A    between atoms: N_4  and  C_5 
REMARK    2  A    between atoms: C_11  and  O_12 
REMARK    3  A    between atoms: C_13  and  C_14 
REMARK    4  A    between atoms: N_15  and  N_16 
REMARK       I    between atoms: N_16  and  C_17 
REMARK    5  A    between atoms: C_17  and  C_18 
REMARK    6  A    between atoms: C_18  and  C_19 
REMARK    7  A    between atoms: C_19  and  N_20 
REMARK       I    between atoms: N_20  and  C_21 
REMARK    8  A    between atoms: C_21  and  C_22 
ROOT
HETATM    1  C   UNL     1       3.024  -3.106   0.169  1.00  0.00     0.156 C 
HETATM    2  N   UNL     1       1.733  -3.174   0.080  1.00  0.00    -0.184 NA
ENDROOT
BRANCH   2   3
HETATM    3  N   UNL     1       1.179  -4.417  -0.123  1.00  0.00    -0.247 N 
HETATM    4  C   UNL     1       1.625  -5.587   0.490  1.00  0.00     0.239 C 
HETATM    5  O   UNL     1       2.605  -5.674   1.225  1.00  0.00    -0.272 OA
HETATM    6  H   UNL     1       0.207  -4.384  -0.419  1.00  0.00     0.192 HD
BRANCH   4   7
HETATM    7  C   UNL     1       0.788  -6.785   0.096  1.00  0.00     0.124 C 
BRANCH   7   8
HETATM    8  C   UNL     1       1.130  -7.998   0.954  1.00  0.00     0.132 C 
BRANCH   8   9
HETATM    9  N   UNL     1       0.561  -9.241   0.457  1.00  0.00    -0.356 N 
HETATM   10  C   UNL     1      -0.802  -9.453   0.410  1.00  0.00     0.251 C 
HETATM   11  O   UNL     1      -1.626  -8.582   0.669  1.00  0.00    -0.268 OA
HETATM   12  H   UNL     1       1.164 -10.051   0.490  1.00  0.00     0.162 HD
BRANCH  10  13
HETATM   13  C   UNL     1      -1.252 -10.831   0.055  1.00  0.00     0.032 A 
HETATM   14  C   UNL     1      -0.442 -11.726  -0.659  1.00  0.00     0.017 A 
HETATM   15  C   UNL     1      -0.909 -13.010  -0.955  1.00  0.00     0.001 A 
HETATM   16  C   UNL     1      -2.186 -13.401  -0.554  1.00  0.00     0.000 A 
HETATM   17  C   UNL     1      -3.004 -12.509   0.137  1.00  0.00     0.001 A 
HETATM   18  C   UNL     1      -2.540 -11.227   0.439  1.00  0.00     0.017 A 
ENDBRANCH  10  13
ENDBRANCH   8   9
ENDBRANCH   7   8
ENDBRANCH   4   7
ENDBRANCH   2   3
BRANCH   1  19
HETATM   19  C   UNL     1       3.654  -1.829   0.408  1.00  0.00     0.062 C 
HETATM   20  C   UNL     1       3.100  -0.561   0.707  1.00  0.00     0.067 C 
HETATM   21  C   UNL     1       1.670  -0.194   0.862  1.00  0.00     0.073 C 
HETATM   22  N   UNL     1       4.046   0.367   0.896  1.00  0.00    -0.169 NA
HETATM   23  N   UNL     1       5.216  -0.259   0.604  1.00  0.00    -0.210 N 
HETATM   24  C   UNL     1       5.021  -1.632   0.447  1.00  0.00     0.177 C 
BRANCH  23  25
HETATM   25  C   UNL     1       6.420   0.497   0.488  1.00  0.00     0.061 A 
HETATM   26  C   UNL     1       6.465   1.798   1.013  1.00  0.00     0.031 A 
HETATM   27  C   UNL     1       7.632   2.558   0.915  1.00  0.00     0.002 A 
HETATM   28  C   UNL     1       8.756   2.034   0.279  1.00  0.00     0.000 A 
HETATM   29  C   UNL     1       8.710   0.755  -0.272  1.00  0.00     0.002 A 
HETATM   30  C   UNL     1       7.545  -0.012  -0.176  1.00  0.00     0.031 A 
ENDBRANCH  23  25
BRANCH  24  31
HETATM   31  O   UNL     1       5.995  -2.544   0.376  1.00  0.00    -0.344 OA
HETATM   32  H   UNL     1       6.753  -2.224   0.900  1.00  0.00     0.219 HD
ENDBRANCH  24  31
ENDBRANCH   1  19
TORSDOF 8
