REMARK  8 active torsions:
REMARK  status: ('A' for Active; 'I' for Inactive)
REMARK    1  A    between atoms: C_2  and  O_3 
REMARK    2  A    between atoms: O_3  and  C_4 
REMARK       I    between atoms: C_4  and  N_5 
REMARK    3  A    between atoms: C_8  and  N_9 
REMARK       I    between atoms: N_9  and  C_10 
REMARK    4  A    between atoms: C_10  and  C_11 
REMARK    5  A    between atoms: C_12  and  C_13 
REMARK    6  A    between atoms: N_18  and  C_19 
REMARK    7  A    between atoms: C_19  and  C_20 
REMARK    8  A    between atoms: C_20  and  O_21 
ROOT
HETATM    1  C   UNL     1       7.512   4.070   0.464  1.00  0.00     0.139 C 
HETATM    2  C   UNL     1       7.599   4.990  -0.778  1.00  0.00     0.145 C 
HETATM    3  N   UNL     1       8.525   6.115  -0.521  1.00  0.00    -0.335 N 
HETATM    4  C   UNL     1       8.401   6.838   0.670  1.00  0.00     0.255 C 
HETATM    5  O   UNL     1       8.938   7.926   0.853  1.00  0.00    -0.267 OA
HETATM    6  C   UNL     1       7.606   6.225   1.771  1.00  0.00     0.039 A 
HETATM    7  C   UNL     1       7.193   4.885   1.706  1.00  0.00    -0.027 A 
HETATM    8  C   UNL     1       7.335   6.995   2.911  1.00  0.00     0.017 A 
HETATM    9  C   UNL     1       6.672   6.431   3.999  1.00  0.00     0.001 A 
HETATM   10  C   UNL     1       6.298   5.091   3.961  1.00  0.00     0.001 A 
HETATM   11  C   UNL     1       6.566   4.319   2.830  1.00  0.00     0.009 A 
ENDROOT
BRANCH   1  12
HETATM   12  C   UNL     1       6.530   2.922   0.234  1.00  0.00     0.229 C 
HETATM   13  N   UNL     1       5.232   3.281  -0.079  1.00  0.00    -0.356 N 
HETATM   14  H   UNL     1       4.949   4.239   0.083  1.00  0.00     0.162 HD
HETATM   15  O   UNL     1       6.879   1.750   0.367  1.00  0.00    -0.273 OA
BRANCH  13  16
HETATM   16  C   UNL     1       4.183   2.270  -0.208  1.00  0.00     0.087 C 
HETATM   17  C   UNL     1       3.556   1.941   1.155  1.00  0.00     0.045 C 
HETATM   18  C   UNL     1       2.633   3.054   1.640  1.00  0.00     0.130 C 
HETATM   19  N   UNL     1       1.652   3.385   0.617  1.00  0.00    -0.328 N 
HETATM   20  C   UNL     1       0.301   3.331   0.911  1.00  0.00     0.362 C 
HETATM   21  C   UNL     1       2.189   3.776  -0.682  1.00  0.00     0.130 C 
HETATM   22  O   UNL     1      -0.146   3.042   2.015  1.00  0.00    -0.238 OA
HETATM   23  C   UNL     1       3.119   2.697  -1.227  1.00  0.00     0.045 C 
BRANCH  20  24
HETATM   24  O   UNL     1      -0.476   3.622  -0.166  1.00  0.00    -0.304 OA
BRANCH  24  25
HETATM   25  C   UNL     1      -1.895   3.554   0.038  1.00  0.00     0.176 C 
HETATM   26  C   UNL     1      -2.417   4.905   0.486  1.00  0.00     0.034 C 
ENDBRANCH  24  25
ENDBRANCH  20  24
ENDBRANCH  13  16
ENDBRANCH   1  12
BRANCH   2  27
HETATM   27  C   UNL     1       7.961   4.204  -2.021  1.00  0.00     0.006 A 
HETATM   28  S   UNL     1       6.888   4.221  -3.368  1.00  0.00    -0.104 SA
HETATM   29  C   UNL     1       7.896   3.181  -4.271  1.00  0.00     0.050 A 
HETATM   30  C   UNL     1       9.021   2.814  -3.569  1.00  0.00     0.008 A 
HETATM   31  C   UNL     1       9.058   3.399  -2.270  1.00  0.00     0.017 A 
ENDBRANCH   2  27
BRANCH   3  32
HETATM   32  C   UNL     1       9.303   6.756  -1.594  1.00  0.00     0.153 C 
BRANCH  32  33
HETATM   33  C   UNL     1      10.811   6.648  -1.338  1.00  0.00     0.187 C 
BRANCH  33  34
HETATM   34  O   UNL     1      11.533   7.143  -2.467  1.00  0.00    -0.394 OA
HETATM   35  C   UNL     1      12.932   7.168  -2.210  1.00  0.00     0.201 C 
ENDBRANCH  33  34
ENDBRANCH  32  33
ENDBRANCH   3  32
TORSDOF 8
