REMARK  10 active torsions:
REMARK  status: ('A' for Active; 'I' for Inactive)
REMARK    1  A    between atoms: N_15  and  C_16 
REMARK    2  A    between atoms: C_16  and  C_17 
REMARK    3  A    between atoms: C_17  and  N_18 
REMARK       I    between atoms: N_18  and  C_19 
REMARK    4  A    between atoms: C_19  and  C_20 
REMARK    5  A    between atoms: C_20  and  C_21 
REMARK    6  A    between atoms: C_21  and  C_22 
REMARK    7  A    between atoms: C_24  and  C_25 
REMARK    8  A    between atoms: C_29  and  O_30 
REMARK    9  A    between atoms: C_31  and  C_32 
REMARK   10  A    between atoms: C_38  and  O_39 
ROOT
HETATM    1  C   UNL     1       6.170   3.354  -2.491  1.00  0.00     0.142 C 
ENDROOT
BRANCH   1   2
HETATM    2  C   UNL     1       6.705   3.781  -1.119  1.00  0.00     0.151 C 
BRANCH   2   3
HETATM    3  N   UNL     1       6.112   5.022  -0.604  1.00  0.00    -0.291 N 
HETATM    4  C   UNL     1       6.513   6.242  -1.109  1.00  0.00     0.366 C 
HETATM    5  O   UNL     1       6.176   7.237  -0.233  1.00  0.00    -0.287 OA
HETATM    6  O   UNL     1       7.098   6.444  -2.159  1.00  0.00    -0.238 OA
HETATM    7  C   UNL     1       5.273   6.693   0.775  1.00  0.00     0.126 C 
HETATM    8  C   UNL     1       5.514   7.534   2.038  1.00  0.00     0.082 C 
HETATM    9  C   UNL     1       5.725   5.205   0.770  1.00  0.00     0.166 C 
HETATM   10  C   UNL     1       3.853   6.970   0.218  1.00  0.00     0.082 C 
HETATM   11  C   UNL     1       4.421   7.487   3.112  1.00  0.00     0.122 C 
HETATM   12  N   UNL     1       3.086   7.767   2.467  1.00  0.00    -0.059 N 
HETATM   13  C   UNL     1       4.653   8.636   4.117  1.00  0.00     0.046 C 
HETATM   14  C   UNL     1       4.365   6.190   3.919  1.00  0.00     0.046 C 
HETATM   15  C   UNL     1       2.676   7.044   1.205  1.00  0.00     0.122 C 
HETATM   16  H   UNL     1       3.062   8.777   2.256  1.00  0.00     0.279 HD
HETATM   17  H   UNL     1       2.342   7.646   3.171  1.00  0.00     0.279 HD
HETATM   18  C   UNL     1       1.565   7.916   0.569  1.00  0.00     0.046 C 
HETATM   19  C   UNL     1       2.022   5.705   1.559  1.00  0.00     0.046 C 
HETATM   20  C   UNL     1       6.888   4.880   1.717  1.00  0.00     0.074 C 
BRANCH   9  21
HETATM   21  O   UNL     1       4.633   4.357   1.044  1.00  0.00    -0.368 OA
HETATM   22  H   UNL     1       4.905   3.447   0.834  1.00  0.00     0.212 HD
ENDBRANCH   9  21
ENDBRANCH   2   3
ENDBRANCH   1   2
BRANCH   1  23
HETATM   23  N   UNL     1       6.720   4.111  -3.597  1.00  0.00    -0.359 N 
HETATM   24  C   UNL     1       6.985   3.515  -4.806  1.00  0.00     0.217 C 
HETATM   25  O   UNL     1       6.830   2.308  -4.988  1.00  0.00    -0.274 OA
HETATM   26  H   UNL     1       6.849   5.114  -3.477  1.00  0.00     0.162 HD
BRANCH  24  27
HETATM   27  C   UNL     1       7.341   4.431  -5.961  1.00  0.00     0.107 C 
BRANCH  27  28
HETATM   28  C   UNL     1       8.260   5.610  -5.657  1.00  0.00     0.048 C 
BRANCH  28  29
HETATM   29  C   UNL     1       9.627   5.279  -5.105  1.00  0.00    -0.057 A 
HETATM   30  C   UNL     1      10.450   4.316  -5.700  1.00  0.00     0.018 A 
HETATM   31  C   UNL     1      11.763   4.057  -5.253  1.00  0.00    -0.016 A 
HETATM   32  C   UNL     1      12.229   4.865  -4.189  1.00  0.00     0.079 A 
HETATM   33  C   UNL     1      11.447   5.869  -3.565  1.00  0.00    -0.016 A 
HETATM   34  C   UNL     1      10.137   6.038  -4.046  1.00  0.00     0.018 A 
BRANCH  31  35
HETATM   35  C   UNL     1      12.625   3.022  -6.024  1.00  0.00    -0.021 C 
HETATM   36  C   UNL     1      13.276   3.747  -7.220  1.00  0.00     0.019 C 
HETATM   37  C   UNL     1      13.750   2.349  -5.203  1.00  0.00     0.019 C 
HETATM   38  C   UNL     1      11.772   1.846  -6.572  1.00  0.00     0.019 C 
ENDBRANCH  31  35
BRANCH  32  39
HETATM   39  O   UNL     1      13.513   4.716  -3.749  1.00  0.00    -0.360 OA
HETATM   40  H   UNL     1      13.516   3.896  -3.228  1.00  0.00     0.217 HD
ENDBRANCH  32  39
BRANCH  33  41
HETATM   41  C   UNL     1      11.997   6.783  -2.441  1.00  0.00    -0.021 C 
HETATM   42  C   UNL     1      13.167   7.638  -2.977  1.00  0.00     0.019 C 
HETATM   43  C   UNL     1      10.950   7.785  -1.884  1.00  0.00     0.019 C 
HETATM   44  C   UNL     1      12.465   5.948  -1.228  1.00  0.00     0.019 C 
ENDBRANCH  33  41
ENDBRANCH  28  29
ENDBRANCH  27  28
ENDBRANCH  24  27
ENDBRANCH   1  23
TORSDOF 10
