REMARK  10 active torsions:
REMARK  status: ('A' for Active; 'I' for Inactive)
REMARK    1  A    between atoms: C_2  and  C_3 
REMARK    2  A    between atoms: C_3  and  C_4 
REMARK    3  A    between atoms: C_4  and  O_5 
REMARK    4  A    between atoms: O_5  and  C_6 
REMARK    5  A    between atoms: C_9  and  C_10 
REMARK       I    between atoms: C_10  and  N_11 
REMARK    6  A    between atoms: N_11  and  C_12 
REMARK    7  A    between atoms: C_12  and  N_13 
REMARK    8  A    between atoms: N_13  and  C_14 
REMARK    9  A    between atoms: C_16  and  O_17 
REMARK   10  A    between atoms: C_18  and  C_19 
ROOT
HETATM    1  N   UNL     1      12.154  -0.382   0.731  1.00  0.00    -0.333 N 
HETATM    2  H   UNL     1      12.771   0.197   1.292  1.00  0.00     0.168 HD
ENDROOT
BRANCH   1   3
HETATM    3  C   UNL     1      11.229  -1.134   1.448  1.00  0.00     0.179 C 
HETATM    4  S   UNL     1      10.808  -0.649   2.982  1.00  0.00    -0.040 SA
BRANCH   3   5
HETATM    5  N   UNL     1      10.820  -2.300   0.792  1.00  0.00    -0.299 N 
HETATM    6  C   UNL     1       9.845  -3.282   0.880  1.00  0.00     0.257 C 
HETATM    7  O   UNL     1       9.638  -3.989  -0.109  1.00  0.00    -0.267 OA
HETATM    8  H   UNL     1      11.301  -2.457  -0.083  1.00  0.00     0.171 HD
BRANCH   6   9
HETATM    9  C   UNL     1       9.023  -3.508   2.069  1.00  0.00     0.032 A 
HETATM   10  C   UNL     1       7.632  -3.504   1.899  1.00  0.00     0.020 A 
HETATM   11  C   UNL     1       6.815  -4.050   2.884  1.00  0.00     0.038 A 
HETATM   12  C   UNL     1       7.398  -4.636   4.008  1.00  0.00     0.068 A 
HETATM   13  C   UNL     1       8.776  -4.568   4.220  1.00  0.00     0.038 A 
HETATM   14  C   UNL     1       9.600  -4.018   3.237  1.00  0.00     0.020 A 
BRANCH  12  15
HETATM   15  O   UNL     1       6.645  -5.336   4.913  1.00  0.00    -0.351 OA
BRANCH  15  16
HETATM   16  C   UNL     1       6.030  -6.483   4.300  1.00  0.00     0.175 C 
BRANCH  16  17
HETATM   17  C   UNL     1       6.537  -7.749   4.988  1.00  0.00     0.026 C 
BRANCH  17  18
HETATM   18  C   UNL     1       6.033  -9.005   4.279  1.00  0.00    -0.002 C 
HETATM   19  C   UNL     1       6.525 -10.271   4.960  1.00  0.00     0.005 C 
ENDBRANCH  17  18
ENDBRANCH  16  17
ENDBRANCH  15  16
ENDBRANCH  12  15
ENDBRANCH   6   9
ENDBRANCH   3   5
ENDBRANCH   1   3
BRANCH   1  20
HETATM   20  C   UNL     1      12.365  -0.425  -0.665  1.00  0.00     0.036 C 
HETATM   21  C   UNL     1      13.663  -0.347  -1.168  1.00  0.00     0.067 C 
HETATM   22  C   UNL     1      13.897  -0.665  -2.515  1.00  0.00     0.082 C 
HETATM   23  C   UNL     1      12.841  -1.015  -3.373  1.00  0.00     0.050 C 
HETATM   24  C   UNL     1      11.532  -0.913  -2.882  1.00  0.00     0.021 C 
HETATM   25  C   UNL     1      11.295  -0.617  -1.543  1.00  0.00     0.030 C 
BRANCH  22  26
HETATM   26  O   UNL     1      15.183  -0.664  -2.985  1.00  0.00    -0.360 OA
HETATM   27  H   UNL     1      15.796  -0.411  -2.276  1.00  0.00     0.217 HD
ENDBRANCH  22  26
BRANCH  23  28
HETATM   28  C   UNL     1      13.007  -1.586  -4.708  1.00  0.00     0.183 A 
HETATM   29  O   UNL     1      14.107  -2.384  -4.903  1.00  0.00    -0.289 OA
HETATM   30  C   UNL     1      13.853  -3.016  -6.084  1.00  0.00     0.106 A 
HETATM   31  C   UNL     1      12.631  -2.565  -6.552  1.00  0.00     0.093 A 
HETATM   32  C   UNL     1      14.635  -3.977  -6.712  1.00  0.00     0.040 A 
HETATM   33  N   UNL     1      12.108  -1.646  -5.680  1.00  0.00    -0.221 NA
HETATM   34  C   UNL     1      12.119  -3.100  -7.741  1.00  0.00     0.034 A 
HETATM   35  C   UNL     1      12.873  -4.082  -8.402  1.00  0.00     0.002 A 
HETATM   36  C   UNL     1      14.108  -4.510  -7.895  1.00  0.00     0.003 A 
ENDBRANCH  23  28
ENDBRANCH   1  20
TORSDOF 10
