REMARK  4 active torsions:
REMARK  status: ('A' for Active; 'I' for Inactive)
REMARK    1  A    between atoms: C_2  and  C_3 
REMARK    2  A    between atoms: C_7  and  N_8 
REMARK    3  A    between atoms: C_10  and  C_11 
REMARK    4  A    between atoms: C_21  and  C_22 
ROOT
HETATM    1  C   UNL     1       3.091   1.076  -0.505  1.00  0.00     0.079 A 
HETATM    2  S   UNL     1       2.357   2.592  -0.214  1.00  0.00    -0.064 SA
HETATM    3  C   UNL     1       3.752   3.443  -0.676  1.00  0.00     0.112 A 
HETATM    4  C   UNL     1       4.800   2.616  -1.060  1.00  0.00     0.043 A 
HETATM    5  C   UNL     1       4.397   1.239  -0.942  1.00  0.00     0.060 A 
HETATM    6  N   UNL     1       3.745   4.788  -0.649  1.00  0.00    -0.240 NA
HETATM    7  C   UNL     1       4.877   5.388  -1.061  1.00  0.00     0.069 A 
HETATM    8  C   UNL     1       5.996   4.671  -1.472  1.00  0.00     0.049 A 
HETATM    9  C   UNL     1       5.992   3.260  -1.481  1.00  0.00     0.065 A 
ENDROOT
BRANCH   7  10
HETATM   10  C   UNL     1       4.846   6.867  -1.041  1.00  0.00    -0.004 A 
HETATM   11  C   UNL     1       4.135   7.550  -0.032  1.00  0.00     0.053 A 
HETATM   12  C   UNL     1       4.122   8.930  -0.038  1.00  0.00     0.106 A 
HETATM   13  C   UNL     1       4.778   9.656  -1.000  1.00  0.00     0.105 A 
HETATM   14  O   UNL     1       3.488   9.723   0.867  1.00  0.00    -0.323 OA
HETATM   15  O   UNL     1       4.639  10.997  -0.827  1.00  0.00    -0.323 OA
HETATM   16  C   UNL     1       5.479   9.043  -2.012  1.00  0.00     0.040 A 
HETATM   17  C   UNL     1       3.811  11.032   0.355  1.00  0.00     0.352 A 
HETATM   18  C   UNL     1       5.509   7.642  -2.030  1.00  0.00     0.017 A 
ENDBRANCH   7  10
BRANCH   9  19
HETATM   19  C   UNL     1       7.208   2.525  -1.976  1.00  0.00     0.418 C 
HETATM   20  F   UNL     1       7.552   1.458  -1.200  1.00  0.00    -0.166 F 
HETATM   21  F   UNL     1       7.051   2.042  -3.237  1.00  0.00    -0.166 F 
HETATM   22  F   UNL     1       8.323   3.310  -2.021  1.00  0.00    -0.166 F 
ENDBRANCH   9  19
BRANCH   1  23
HETATM   23  C   UNL     1       2.379  -0.179  -0.273  1.00  0.00     0.164 C 
HETATM   24  C   UNL     1       0.914  -0.138   0.100  1.00  0.00     0.097 C 
HETATM   25  O   UNL     1       2.936  -1.278  -0.365  1.00  0.00    -0.292 OA
ENDBRANCH   1  23
BRANCH   5  26
HETATM   26  N   UNL     1       5.199   0.187  -1.233  1.00  0.00    -0.397 N 
HETATM   27  H   UNL     1       6.216   0.243  -1.193  1.00  0.00     0.156 HD
HETATM   28  H   UNL     1       4.870  -0.761  -1.018  1.00  0.00     0.156 HD
ENDBRANCH   5  26
TORSDOF 4
