REMARK  2 active torsions:
REMARK  status: ('A' for Active; 'I' for Inactive)
REMARK    1  A    between atoms: C_6  and  N_7 
REMARK       I    between atoms: N_7  and  C_8 
REMARK       I    between atoms: C_8  and  N_9 
REMARK    2  A    between atoms: N_9  and  C_10 
ROOT
HETATM    1  N   UNL     1       1.868   0.622   3.364  1.00  0.00    -0.306 N 
HETATM    2  C   UNL     1       2.206   0.187   2.123  1.00  0.00     0.321 C 
HETATM    3  N   UNL     1       2.107   1.049   1.078  1.00  0.00    -0.338 N 
HETATM    4  O   UNL     1       2.459  -1.005   1.961  1.00  0.00    -0.247 OA
HETATM    5  H   UNL     1       1.725  -0.175   3.976  1.00  0.00     0.171 HD
HETATM    6  H   UNL     1       2.270   2.023   1.295  1.00  0.00     0.164 HD
ENDROOT
BRANCH   3   7
HETATM    7  C   UNL     1       2.327   0.657  -0.308  1.00  0.00     0.092 C 
HETATM    8  C   UNL     1       1.252  -0.354  -0.800  1.00  0.00     0.084 C 
HETATM    9  C   UNL     1       1.659  -0.903  -2.105  1.00  0.00     0.034 A 
HETATM   10  C   UNL     1       2.915  -0.805  -2.662  1.00  0.00     0.033 A 
HETATM   11  N   UNL     1       0.900  -1.635  -2.994  1.00  0.00    -0.354 N 
HETATM   12  N   UNL     1       2.854  -1.473  -3.866  1.00  0.00    -0.354 N 
HETATM   13  C   UNL     1       4.061  -0.090  -2.070  1.00  0.00     0.061 C 
HETATM   14  H   UNL     1       3.629  -1.581  -4.518  1.00  0.00     0.166 HD
HETATM   15  C   UNL     1       1.632  -1.983  -4.057  1.00  0.00     0.180 A 
HETATM   16  C   UNL     1       3.784   0.176  -0.575  1.00  0.00     0.031 C 
HETATM   17  H   UNL     1      -0.075  -1.895  -2.856  1.00  0.00     0.166 HD
ENDBRANCH   3   7
BRANCH   1  18
HETATM   18  C   UNL     1       1.426   1.869   3.861  1.00  0.00     0.077 A 
HETATM   19  C   UNL     1       1.822   3.151   3.469  1.00  0.00     0.152 A 
HETATM   20  N   UNL     1       1.299   4.301   3.958  1.00  0.00    -0.247 NA
HETATM   21 CL   UNL     1       3.164   3.474   2.436  1.00  0.00    -0.060 Cl
HETATM   22  C   UNL     1       0.364   4.189   4.921  1.00  0.00     0.118 A 
HETATM   23  C   UNL     1      -0.057   2.976   5.432  1.00  0.00     0.022 A 
HETATM   24  C   UNL     1       0.490   1.808   4.902  1.00  0.00     0.034 A 
ENDBRANCH   1  18
TORSDOF 2
