REMARK  1 active torsions:
REMARK  status: ('A' for Active; 'I' for Inactive)
REMARK    1  A    between atoms: C_6  and  N_7 
ROOT
HETATM    1  N   UNL     1       6.701   0.535   0.754  1.00  0.00    -0.320 N 
HETATM    2  C   UNL     1       7.449  -0.307   1.641  1.00  0.00     0.141 C 
HETATM    3  N   UNL     1       6.876  -1.076   2.523  1.00  0.00    -0.380 N 
HETATM    4  H   UNL     1       5.867  -1.080   2.585  1.00  0.00     0.158 HD
HETATM    5  H   UNL     1       7.442  -1.645   3.135  1.00  0.00     0.158 HD
HETATM    6  S   UNL     1       9.159  -0.176   1.432  1.00  0.00    -0.086 SA
HETATM    7  C   UNL     1       8.929   1.311   0.407  1.00  0.00     0.093 C 
HETATM    8  C   UNL     1       7.584   1.055  -0.307  1.00  0.00     0.121 C 
HETATM    9  C   UNL     1       9.890   1.687  -0.693  1.00  0.00     0.158 C 
HETATM   10  S   UNL     1       8.876   2.804  -1.685  1.00  0.00     0.147 S 
HETATM   11  O   UNL     1       9.190   4.165  -1.311  1.00  0.00    -0.228 OA
HETATM   12  O   UNL     1       8.903   2.343  -3.056  1.00  0.00    -0.228 OA
HETATM   13  C   UNL     1       7.275   2.376  -0.971  1.00  0.00     0.167 C 
ENDROOT
BRANCH   1  14
HETATM   14  C   UNL     1       5.355   0.330   0.389  1.00  0.00     0.048 A 
HETATM   15  C   UNL     1       4.395   1.311   0.733  1.00  0.00    -0.034 A 
HETATM   16  C   UNL     1       3.046   1.123   0.389  1.00  0.00     0.015 A 
HETATM   17  C   UNL     1       4.753   2.587   1.452  1.00  0.00     0.050 C 
HETATM   18  C   UNL     1       2.621  -0.034  -0.262  1.00  0.00    -0.061 A 
HETATM   19  C   UNL     1       1.167  -0.249  -0.569  1.00  0.00     0.048 C 
HETATM   20  C   UNL     1       3.561  -1.022  -0.560  1.00  0.00     0.015 A 
HETATM   21  C   UNL     1       4.925  -0.853  -0.258  1.00  0.00    -0.034 A 
HETATM   22  C   UNL     1       5.845  -2.001  -0.587  1.00  0.00     0.050 C 
ENDBRANCH   1  14
TORSDOF 1
