REMARK  7 active torsions:
REMARK  status: ('A' for Active; 'I' for Inactive)
REMARK    1  A    between atoms: O_2  and  C_3 
REMARK    2  A    between atoms: C_4  and  O_5 
REMARK    3  A    between atoms: C_7  and  C_8 
REMARK    4  A    between atoms: N_9  and  N_10 
REMARK    5  A    between atoms: C_21  and  C_22 
REMARK       I    between atoms: C_22  and  N_23 
REMARK    6  A    between atoms: N_23  and  C_24 
REMARK    7  A    between atoms: C_31  and  N_32 
ROOT
HETATM    1  N   UNL     1       1.701  -5.920   0.454  1.00  0.00    -0.197 N 
HETATM    2  C   UNL     1       0.433  -6.312   0.859  1.00  0.00     0.183 A 
HETATM    3  C   UNL     1      -0.407  -6.202  -0.241  1.00  0.00     0.125 A 
HETATM    4  N   UNL     1      -1.750  -6.385  -0.138  1.00  0.00    -0.242 NA
HETATM    5  C   UNL     1      -2.169  -6.747   1.083  1.00  0.00     0.086 A 
HETATM    6  C   UNL     1      -1.290  -6.888   2.191  1.00  0.00     0.088 A 
HETATM    7  N   UNL     1       0.032  -6.648   2.110  1.00  0.00    -0.225 NA
HETATM    8  C   UNL     1      -3.523  -6.999   1.259  1.00  0.00     0.034 A 
HETATM    9  C   UNL     1      -4.038  -7.402   2.492  1.00  0.00     0.002 A 
HETATM   10  C   UNL     1      -3.181  -7.555   3.572  1.00  0.00     0.002 A 
HETATM   11  C   UNL     1      -1.817  -7.294   3.412  1.00  0.00     0.034 A 
HETATM   12  C   UNL     1       0.366  -5.835  -1.366  1.00  0.00     0.110 C 
HETATM   13  C   UNL     1       1.691  -5.838  -0.951  1.00  0.00     0.143 C 
ENDROOT
BRANCH   1  14
HETATM   14  N   UNL     1       2.588  -5.252   1.269  1.00  0.00    -0.176 NA
HETATM   15  C   UNL     1       3.834  -5.436   0.980  1.00  0.00     0.153 C 
BRANCH  15  16
HETATM   16  C   UNL     1       4.827  -4.364   1.197  1.00  0.00     0.019 A 
HETATM   17  C   UNL     1       6.179  -4.600   0.934  1.00  0.00     0.113 A 
HETATM   18  C   UNL     1       7.052  -3.513   0.780  1.00  0.00     0.102 A 
HETATM   19  C   UNL     1       6.595  -2.213   1.011  1.00  0.00     0.040 A 
HETATM   20  C   UNL     1       5.260  -1.984   1.339  1.00  0.00     0.004 A 
HETATM   21  C   UNL     1       4.372  -3.056   1.418  1.00  0.00     0.016 A 
BRANCH  17  22
HETATM   22  O   UNL     1       6.633  -5.887   0.788  1.00  0.00    -0.352 OA
HETATM   23  C   UNL     1       7.157  -6.340   2.041  1.00  0.00     0.210 C 
ENDBRANCH  17  22
BRANCH  18  24
HETATM   24  O   UNL     1       8.373  -3.626   0.431  1.00  0.00    -0.353 OA
HETATM   25  C   UNL     1       8.574  -4.403  -0.751  1.00  0.00     0.210 C 
ENDBRANCH  18  24
ENDBRANCH  15  16
ENDBRANCH   1  14
BRANCH  13  26
HETATM   26  N   UNL     1       2.795  -5.586  -1.713  1.00  0.00    -0.383 N 
HETATM   27  H   UNL     1       3.698  -5.996  -1.500  1.00  0.00     0.157 HD
HETATM   28  H   UNL     1       2.647  -5.528  -2.727  1.00  0.00     0.157 HD
ENDBRANCH  13  26
BRANCH  12  29
HETATM   29  C   UNL     1      -0.076  -5.443  -2.696  1.00  0.00     0.258 C 
HETATM   30  N   UNL     1      -1.411  -5.103  -2.774  1.00  0.00    -0.352 N 
HETATM   31  H   UNL     1      -1.949  -5.195  -1.916  1.00  0.00     0.163 HD
HETATM   32  O   UNL     1       0.700  -5.322  -3.641  1.00  0.00    -0.267 OA
BRANCH  30  33
HETATM   33  C   UNL     1      -1.883  -4.163  -3.781  1.00  0.00     0.084 C 
HETATM   34  C   UNL     1      -3.372  -4.371  -4.066  1.00  0.00     0.025 C 
HETATM   35  C   UNL     1      -4.268  -3.909  -2.918  1.00  0.00     0.002 C 
HETATM   36  C   UNL     1      -3.971  -2.469  -2.510  1.00  0.00     0.000 C 
HETATM   37  C   UNL     1      -2.495  -2.266  -2.187  1.00  0.00     0.002 C 
HETATM   38  C   UNL     1      -1.599  -2.715  -3.342  1.00  0.00     0.025 C 
ENDBRANCH  30  33
ENDBRANCH  12  29
TORSDOF 7
