REMARK  6 active torsions:
REMARK  status: ('A' for Active; 'I' for Inactive)
REMARK    1  A    between atoms: C_2  and  C_3 
REMARK       I    between atoms: C_3  and  N_4 
REMARK    2  A    between atoms: N_4  and  C_5 
REMARK    3  A    between atoms: C_5  and  C_6 
REMARK    4  A    between atoms: N_8  and  C_10 
REMARK    5  A    between atoms: C_10  and  C_11 
REMARK    6  A    between atoms: C_12  and  C_13 
ROOT
HETATM    1  C   UNL     1       4.915   0.501   3.294  1.00  0.00     0.029 C 
HETATM    2  C   UNL     1       4.149   1.100   4.478  1.00  0.00     0.241 C 
HETATM    3  N   UNL     1       2.987   0.233   4.900  1.00  0.00    -0.067 N 
HETATM    4  H   UNL     1       2.317   0.242   4.103  1.00  0.00     0.280 HD
HETATM    5  C   UNL     1       3.397  -1.176   5.223  1.00  0.00     0.235 C 
HETATM    6  C   UNL     1       4.240  -1.797   4.117  1.00  0.00     0.028 C 
HETATM    7  C   UNL     1       5.398  -0.904   3.680  1.00  0.00     0.009 C 
ENDROOT
BRANCH   3   8
HETATM    8  C   UNL     1       2.215   0.915   6.024  1.00  0.00     0.277 C 
BRANCH   8   9
HETATM    9  C   UNL     1       1.058   0.168   6.591  1.00  0.00     0.016 A 
HETATM   10  C   UNL     1      -0.345   0.400   6.411  1.00  0.00     0.096 A 
HETATM   11  N   UNL     1      -1.066  -0.525   7.058  1.00  0.00    -0.174 NA
HETATM   12  N   UNL     1      -0.179  -1.261   7.727  1.00  0.00    -0.288 N 
HETATM   13  H   UNL     1      -0.527  -2.001   8.332  1.00  0.00     0.188 HD
HETATM   14  C   UNL     1       1.109  -0.888   7.488  1.00  0.00     0.120 A 
BRANCH  10  15
HETATM   15  C   UNL     1      -1.036   1.459   5.677  1.00  0.00    -0.003 A 
HETATM   16  C   UNL     1      -0.701   2.804   5.872  1.00  0.00     0.037 A 
HETATM   17  C   UNL     1      -1.413   3.803   5.206  1.00  0.00     0.035 A 
HETATM   18 CL   UNL     1      -0.968   5.450   5.435  1.00  0.00    -0.084 Cl
HETATM   19  C   UNL     1      -2.471   3.482   4.360  1.00  0.00     0.024 A 
HETATM   20  C   UNL     1      -2.823   2.146   4.175  1.00  0.00     0.003 A 
HETATM   21  C   UNL     1      -2.109   1.140   4.831  1.00  0.00     0.014 A 
ENDBRANCH  10  15
ENDBRANCH   8   9
ENDBRANCH   3   8
BRANCH   1  22
HETATM   22  C   UNL     1       4.152   0.449   1.956  1.00  0.00     0.128 C 
BRANCH  22  23
HETATM   23  N   UNL     1       3.568   1.706   1.549  1.00  0.00    -0.360 N 
HETATM   24  C   UNL     1       2.285   2.047   1.931  1.00  0.00     0.221 C 
HETATM   25  O   UNL     1       1.696   1.418   2.811  1.00  0.00    -0.273 OA
HETATM   26  H   UNL     1       3.945   2.154   0.716  1.00  0.00     0.162 HD
BRANCH  24  27
HETATM   27  C   UNL     1       1.717   3.260   1.200  1.00  0.00     0.070 C 
HETATM   28  C   UNL     1       2.515   4.517   1.542  1.00  0.00     0.019 C 
HETATM   29  C   UNL     1       0.243   3.457   1.534  1.00  0.00     0.019 C 
ENDBRANCH  24  27
ENDBRANCH  22  23
ENDBRANCH   1  22
TORSDOF 6
